data_crystal

_cell_length_a 18.95470
_cell_length_b 18.98190
_cell_length_c 19.14270
_cell_angle_alpha 94.76790
_cell_angle_beta  94.77620
_cell_angle_gamma 103.14860

_symmetry_space_group_name_	'P 1'
_symmetry_space_group_name_H-M	'P 1'

loop_
_symmetry_equiv_pos_as_xyz
  x,y,z

loop_
_atom_site_label
_atom_site_type_symbol
_atom_site_fract_x
_atom_site_fract_y
_atom_site_fract_z
_atom_site_charge
O 	O 	0.43789 0.13874 0.11070 -0.25000
C 	C 	0.45448 0.18607 0.17564 0.04400
C 	C 	0.39131 0.22291 0.19552 -0.04100
C 	C 	0.33088 0.16414 0.22195 0.06700
O 	O 	0.27592 0.19232 0.25601 -0.24500
C 	C 	0.42393 0.28478 0.25629 0.05800
O 	O 	0.36950 0.32040 0.27848 -0.21100
C 	C 	0.36179 0.25481 0.12978 0.05300
O 	O 	0.30614 0.29238 0.14532 -0.20400
C 	C 	0.23509 0.26542 0.11108 0.12400
C 	C 	0.20456 0.19045 0.09242 -0.08500
C 	C 	0.13256 0.16557 0.06426 -0.09000
C 	C 	0.09072 0.21482 0.05090 -0.03600
C 	C 	0.12014 0.29035 0.06573 -0.01400
C 	C 	0.19166 0.31521 0.09858 -0.10700
H 	H 	0.50316 0.22929 0.16882 0.00900
H 	H 	0.47218 0.15737 0.21995 0.01900
H 	H 	0.30344 0.12371 0.17788 0.00700
H 	H 	0.35913 0.13257 0.25615 0.01600
H 	H 	0.44751 0.26050 0.30111 0.02200
H 	H 	0.46873 0.32582 0.23845 0.01400
H 	H 	0.40737 0.29508 0.11221 0.01800
H 	H 	0.34410 0.21222 0.08437 0.02300
H 	H 	0.23485 0.14989 0.09870 0.03800
H 	H 	1.10940 0.10785 0.05121 0.06500
H 	H 	0.03539 0.19311 0.02693 0.01400
H 	H 	0.21449 0.37288 0.11223 0.05500
O 	O 	0.87046 0.07245 0.39337 -0.24500
C 	C 	0.82284 0.05571 0.32857 0.04400
C 	C 	0.78627 0.11893 0.30842 -0.04100
C 	C 	0.84519 0.17881 0.28140 0.06200
O 	O 	0.81714 0.23381 0.24739 -0.24000
C 	C 	0.72388 0.08620 0.24811 0.06000
O 	O 	0.68884 0.14070 0.22520 -0.21300
C 	C 	0.75485 0.14914 0.37414 0.05200
O 	O 	0.71716 0.20454 0.35821 -0.20400
C 	C 	0.74430 0.27555 0.39212 0.14800
C 	C 	0.81947 0.30616 0.41006 -0.11400
C 	C 	0.84450 0.37798 0.43830 0.00700
C 	C 	0.79525 0.41975 0.45209 -0.06200
C 	C 	0.71956 0.39030 0.43745 0.01600
C 	C 	0.69452 0.31887 0.40492 -0.11400
H 	H 	0.77939 0.00737 0.33573 0.00000
H 	H 	0.85127 0.03745 0.28431 0.01300
H 	H 	0.88604 0.20622 0.32517 0.02100
H 	H 	0.87638 0.15022 0.24706 0.02300
H 	H 	0.74755 0.06146 0.20350 0.01200
H 	H 	0.68240 0.04237 0.26673 0.00700
H 	H 	0.71468 0.10398 0.39239 0.02300
H 	H 	0.79780 0.16723 0.41926 0.03500
H 	H 	0.86008 0.27607 0.40300 0.06500
H 	H 	0.90242 0.40111 0.45060 0.02700
H 	H 	0.81704 0.47505 0.47595 0.05500
H 	H 	0.63670 0.29619 0.39153 0.06600
O 	O 	0.93879 0.63906 0.11084 -0.24200
C 	C 	0.95529 0.68605 0.17605 0.03700
C 	C 	0.89213 0.72290 0.19617 -0.03300
C 	C 	0.83131 0.66420 0.22224 0.06000
O 	O 	0.77625 0.69263 0.25598 -0.23900
C 	C 	0.92472 0.78417 0.25736 0.05100
O 	O 	0.87054 0.82049 0.27884 -0.20300
C 	C 	0.86293 0.75558 0.13075 0.04800
O 	O 	0.80732 0.79329 0.14633 -0.19900
C 	C 	0.73634 0.76656 0.11182 0.14300
C 	C 	0.70582 0.69161 0.09318 -0.12000
C 	C 	0.63408 0.66669 0.06441 -0.00200
C 	C 	0.59229 0.71587 0.05071 -0.06900
C 	C 	0.62140 0.79141 0.06616 0.01000
C 	C 	0.69289 0.81636 0.09917 -0.11700
H 	H 	1.00399 0.72931 0.16941 0.02500
H 	H 	0.97327 0.65721 0.22012 0.03300
H 	H 	0.80400 0.62373 0.17818 0.01500
H 	H 	0.85922 0.63237 0.25646 0.02500
H 	H 	0.94709 0.75922 0.30238 0.03300
H 	H 	0.97035 0.82491 0.24035 0.03000
H 	H 	0.90878 0.79595 0.11376 0.03000
H 	H 	0.84528 0.71338 0.08501 0.02600
H 	H 	0.73598 0.65108 0.09987 0.05700
H 	H 	0.61112 0.60893 0.05132 0.00900
H 	H 	0.53723 0.69409 0.02605 0.04100
H 	H 	0.71552 0.87406 0.11293 0.07000
O 	O 	0.37039 0.57241 0.39359 -0.24000
C 	C 	0.32253 0.55527 0.32896 0.04100
C 	C 	0.28557 0.61822 0.30865 -0.04000
C 	C 	0.34405 0.67798 0.28088 0.06300
O 	O 	0.31552 0.73254 0.24653 -0.24000
C 	C 	0.22253 0.58505 0.24904 0.05900
O 	O 	0.18779 0.63956 0.22556 -0.21500
C 	C 	0.25474 0.64886 0.37452 0.05300
O 	O 	0.21683 0.70410 0.35854 -0.21100
C 	C 	0.24392 0.77524 0.39212 0.16400
C 	C 	0.31908 0.80596 0.40997 -0.15200
C 	C 	0.34404 0.87777 0.43823 0.09300
C 	C 	0.29475 0.91943 0.45212 -0.09700
C 	C 	0.21909 0.89003 0.43745 0.03500
C 	C 	0.19411 0.81855 0.40487 -0.12800
H 	H 	0.27930 0.50693 0.33661 0.01100
H 	H 	0.35082 0.53689 0.28461 0.02000
H 	H 	0.38505 0.70589 0.32440 0.01800
H 	H 	0.37517 0.64930 0.24656 0.02100
H 	H 	0.24528 0.55898 0.20454 0.01800
H 	H 	0.18093 0.54214 0.26878 0.01000
H 	H 	0.21486 0.60384 0.39333 0.02300
H 	H 	0.29808 0.66725 0.41926 0.03500
H 	H 	0.35969 0.77586 0.40295 0.07500
H 	H 	0.40191 -0.09903 0.45066 -0.04700
H 	H 	0.31656 0.97467 0.47612 0.07600
H 	H 	0.13632 0.79571 0.39160 0.06200
O 	O 	0.30394 0.65869 0.60785 -0.23800
C 	C 	0.36092 0.71576 0.64558 0.03600
C 	C 	0.33098 0.78237 0.67148 -0.04500
C 	C 	0.26164 0.75432 0.70897 0.09900
O 	O 	0.23179 0.81226 0.73738 -0.22300
C 	C 	0.38977 0.83407 0.72550 0.05100
O 	O 	0.36952 0.90122 0.74398 -0.19700
C 	C 	0.31710 0.82325 0.60640 0.05300
O 	O 	0.26821 0.86936 0.61800 -0.18600
C 	C 	0.19342 0.84338 0.59513 0.14600
C 	C 	0.16251 0.77504 0.55581 -0.07400
C 	C 	0.08853 0.75506 0.53276 -0.06900
C 	C 	0.04402 0.80102 0.55045 -0.02600
C 	C 	0.07285 0.86725 0.59275 -0.01300
C 	C 	0.14733 0.88811 0.61503 -0.07200
H 	H 	0.40486 0.73396 0.61124 0.03500
H 	H 	0.38528 0.69386 0.69158 0.01300
H 	H 	0.21875 0.71569 0.67258 0.00300
H 	H 	0.27866 0.72399 0.75161 -0.13500
H 	H 	0.40069 0.80552 0.77242 0.00500
H 	H 	0.44207 0.84751 0.70158 0.03300
H 	H 	0.36947 0.85874 0.59575 0.03900
H 	H 	0.30209 0.78681 0.55679 0.03000
H 	H 	0.19346 0.73597 0.54169 0.05600
H 	H 	1.06529 0.70302 0.50238 0.08300
H 	H 	-0.01408 0.78295 0.53487 0.01800
H 	H 	0.16939 0.93826 0.64887 0.07700
O 	O 	0.35094 0.20607 0.89636 -0.23300
C 	C 	0.29400 0.14928 0.85826 0.03900
C 	C 	0.22727 0.17900 0.83198 -0.05100
C 	C 	0.25525 0.24824 0.79440 0.10200
O 	O 	0.19718 0.27812 0.76620 -0.22900
C 	C 	0.17600 0.12014 0.77782 0.05800
O 	O 	0.10844 0.13979 0.75950 -0.21400
C 	C 	0.18568 0.19250 0.89670 0.05600
O 	O 	0.13957 0.24137 0.88503 -0.19300
C 	C 	0.16573 0.31604 0.90795 0.16900
C 	C 	0.23410 0.34671 0.94747 -0.10000
C 	C 	0.25450 0.42063 0.97019 0.02100
C 	C 	0.20888 0.46529 0.95205 -0.05000
C 	C 	0.14252 0.43667 0.90978 0.01400
C 	C 	0.12127 0.36226 0.88770 -0.08500
H 	H 	0.27566 0.10528 0.89242 0.03000
H 	H 	0.31624 0.12517 0.81237 0.00300
H 	H 	0.29439 0.29100 0.83049 0.00600
H 	H 	0.28513 0.23106 0.75149 -0.13800
H 	H 	0.20474 0.10965 0.73089 -0.00800
H 	H 	0.16306 0.06781 0.80160 0.01500
H 	H 	0.15005 0.14005 0.90694 0.03300
H 	H 	0.22181 0.20730 0.94650 0.04000
H 	H 	0.27296 0.31566 0.96202 0.07900
H 	H 	0.30653 0.44366 1.00078 0.04000
H 	H 	0.22734 0.52333 0.96730 0.05600
H 	H 	0.07107 0.34035 0.85381 0.06200
O 	O 	0.80370 0.15888 0.60721 -0.23800
C 	C 	0.86067 0.21566 0.64526 0.03500
C 	C 	0.83081 0.28221 0.67139 -0.04500
C 	C 	0.76123 0.25414 0.70857 0.10000
O 	O 	0.73176 0.31220 0.73736 -0.22600
C 	C 	0.88948 0.33354 0.72574 0.04900
O 	O 	0.86949 0.40090 0.74400 -0.19900
C 	C 	0.81739 0.32358 0.60655 0.05500
O 	O 	0.76838 0.36948 0.61825 -0.19300
C 	C 	0.69363 0.34327 0.59537 0.16200
C 	C 	0.66294 0.27501 0.55583 -0.10800
C 	C 	0.58898 0.25492 0.53262 0.01100
C 	C 	0.54434 0.30075 0.55034 -0.05800
C 	C 	0.57300 0.36687 0.59290 0.00500
C 	C 	0.64740 0.38770 0.61550 -0.08800
H 	H 	0.90481 0.23390 0.61111 0.04100
H 	H 	0.88470 0.19351 0.69126 0.01800
H 	H 	0.71831 0.21593 0.67188 0.00300
H 	H 	0.77780 0.22331 0.75096 -0.13600
H 	H 	0.89986 0.30483 0.77268 0.01100
H 	H 	0.94198 0.34668 0.70213 0.04100
H 	H 	0.86986 0.35926 0.59639 0.03700
H 	H 	0.80274 0.28762 0.55661 0.03000
H 	H 	0.69407 0.23607 0.54172 0.06800
H 	H 	0.56592 0.20303 0.50191 0.02100
H 	H 	0.48627 0.28272 0.53444 0.04300
H 	H 	0.66933 0.43758 0.64980 0.07000
O 	O 	0.85177 0.70653 0.89654 -0.22500
C 	C 	0.79478 0.64974 0.85850 0.03300
C 	C 	0.72808 0.67946 0.83212 -0.04300
C 	C 	0.75589 0.74875 0.79453 0.09700
O 	O 	0.69774 0.77855 0.76637 -0.22500
C 	C 	0.67688 0.62049 0.77794 0.05100
O 	O 	0.60914 0.63983 0.75960 -0.20200
C 	C 	0.68663 0.69307 0.89687 0.05200
O 	O 	0.64057 0.74199 0.88517 -0.19000
C 	C 	0.66649 0.81665 0.90830 0.18500
C 	C 	0.73484 0.84740 0.94781 -0.13300
C 	C 	0.75530 0.92143 0.97022 0.10500
C 	C 	0.70966 0.96604 0.95193 -0.08100
C 	C 	0.64312 0.93726 0.91005 0.03600
C 	C 	0.62182 0.86275 0.88821 -0.09600
H 	H 	0.77643 0.60582 0.89279 0.04100
H 	H 	0.81694 0.62546 0.81264 0.01600
H 	H 	0.79489 0.79156 0.83073 0.01400
H 	H 	0.78584 0.73165 0.75163 -0.13300
H 	H 	0.70563 0.61016 0.73099 0.00300
H 	H 	0.66423 0.56809 0.80161 0.03200
H 	H 	0.65095 0.64069 0.90715 0.04500
H 	H 	0.72285 0.70777 0.94667 0.04300
H 	H 	0.77365 0.81631 0.96246 0.09400
H 	H 	0.80746 -0.05534 1.00049 -0.01600
H 	H 	0.72822 1.02417 0.96689 0.08500
H 	H 	0.57147 0.84074 0.85456 0.07700
Mn	Mn	0.83765 0.76647 0.66594 1.24100
Mn	Mn	0.81318 0.88226 0.54248 1.28500
Mn	Mn	0.12948 0.23679 0.35211 1.20700
Mn	Mn	0.14920 0.13826 0.49360 1.28100
Mn	Mn	-0.01532 0.00242 0.51215 1.23500
C 	C 	0.71655 0.83058 0.71872 0.21600
N 	N 	0.77063 0.83330 0.67736 -0.26200
N 	N 	0.76150 0.87932 0.63147 -0.18200
N 	N 	0.70304 0.90396 0.64300 -0.04300
N 	N 	0.67385 0.87447 0.69778 -0.09100
N 	N 	0.78568 0.02969 0.57084 -0.14400
N 	N 	0.82906 0.99057 0.54551 -0.16500
N 	N 	0.89293 0.03289 0.53750 -0.20400
N 	N 	0.89346 0.10148 0.55760 -0.10200
C 	C 	0.82656 0.09863 0.57775 0.21500
C 	C 	0.88245 0.85227 0.34849 0.22300
N 	N 	0.86261 0.88039 0.45231 -0.18800
N 	N 	0.83319 0.83645 0.39499 -0.12100
N 	N 	-0.02748 0.92894 0.58640 -0.24000
N 	N 	0.90797 0.89658 0.60345 -0.17200
N 	N 	0.91538 0.85493 0.65403 -0.18200
N 	N 	-0.01531 0.85816 0.67080 -0.13200
N 	N 	0.92550 0.92213 0.44065 -0.17200
N 	N 	0.94048 0.90628 0.37564 -0.09700
C 	C 	0.02066 0.90099 0.62600 0.11800
N 	N 	0.20372 0.17446 0.35753 -0.26700
N 	N 	0.21006 0.13851 0.41277 -0.19600
N 	N 	0.26751 0.11034 0.41242 -0.06600
N 	N 	0.29925 0.12510 0.35500 -0.11400
N 	N 	0.19859 1.00609 0.48389 -0.07500
N 	N 	0.14304 0.03228 0.49883 -0.25300
N 	N 	0.08202 0.98052 0.48715 -0.16600
N 	N 	0.09667 0.91915 0.46009 -0.09700
N 	N 	0.03333 0.07802 0.65498 -0.13200
N 	N 	0.03997 0.08172 0.58708 -0.21100
N 	N 	0.09390 0.13678 0.57799 -0.20300
N 	N 	0.12648 0.16891 0.64017 -0.12800
N 	N 	0.99495 0.07346 0.43762 -0.22300
N 	N 	0.05830 0.11381 0.42585 -0.22300
N 	N 	0.05000 0.15109 0.37183 -0.23400
N 	N 	0.98022 0.13736 0.34748 -0.11300
Cl	Cl	0.80585 0.76182 0.54801 -0.78400
Cl	Cl	0.14822 0.25519 0.47402 -0.78300
C 	C 	0.25967 0.16502 0.32068 0.19600
C 	C 	0.17041 0.93663 0.45929 0.09900
C 	C 	0.08688 0.13287 0.68706 0.21500
C 	C 	0.94608 0.08797 0.38836 0.21800
Mn	Mn	0.74407 0.17217 0.83752 1.23400
Mn	Mn	0.62802 0.19636 0.96099 1.29100
Mn	Mn	0.27301 0.88001 0.15136 1.21600
Mn	Mn	0.37191 0.86044 0.01005 1.27300
Mn	Mn	0.50781 0.02495 -0.00875 1.23300
C 	C 	0.67991 0.29328 0.78515 0.21300
N 	N 	0.67715 0.23914 0.82627 -0.26500
N 	N 	0.63106 0.24813 0.87222 -0.18600
N 	N 	0.60659 0.30664 0.86103 -0.04800
N 	N 	0.63611 0.33603 0.80637 -0.09300
N 	N 	0.48030 0.22388 0.93281 -0.11200
N 	N 	0.51949 0.18042 0.95798 -0.19800
N 	N 	0.47709 0.11665 0.96590 -0.18100
N 	N 	0.40837 0.11618 0.94584 -0.10800
C 	C 	0.41125 0.18311 0.92585 0.22300
C 	C 	0.65742 0.12804 0.15526 0.21000
N 	N 	0.62990 0.14706 0.05110 -0.21600
N 	N 	0.67340 0.17694 0.10855 -0.13100
N 	N 	0.58134 1.03735 0.91681 -0.18500
N 	N 	0.61372 0.10184 0.89984 -0.21500
N 	N 	0.65534 0.09458 0.84914 -0.22900
N 	N 	0.65200 1.02542 0.83212 -0.08400
N 	N 	0.58818 0.08421 0.06284 -0.21300
N 	N 	0.60373 0.06982 0.12815 -0.12300
C 	C 	0.60921 0.98934 0.87693 0.10800
N 	N 	0.33512 0.80564 0.14589 -0.26300
N 	N 	0.37125 0.79934 0.09068 -0.19400
N 	N 	0.39770 0.74075 0.09013 -0.06000
N 	N 	0.38170 0.70834 0.14689 -0.11000
N 	N 	0.50456 0.81156 0.02089 -0.11300
N 	N 	0.47824 0.86685 0.00537 -0.22000
N 	N 	0.52995 0.92776 0.01622 -0.19000
N 	N 	0.59178 0.91341 0.04314 -0.09500
N 	N 	0.43191 0.97613 0.84844 -0.10200
N 	N 	0.42859 0.96962 0.91641 -0.17000
N 	N 	0.37323 0.91552 0.92545 -0.17400
N 	N 	0.34097 0.88332 0.86358 -0.11900
N 	N 	0.43666 0.01450 0.06601 -0.28000
N 	N 	0.39621 0.95118 0.07765 -0.18000
N 	N 	0.35891 0.95946 0.13181 -0.18600
N 	N 	0.37275 0.02899 0.15626 -0.15900
Cl	Cl	0.74865 0.20372 0.95551 -0.76200
Cl	Cl	0.25470 0.86123 0.02940 -0.80000
C 	C 	0.34288 0.74859 0.18179 0.20200
C 	C 	0.57429 0.83986 0.04471 0.09400
C 	C 	0.37680 0.92275 0.81643 0.23100
C 	C 	0.42224 0.06318 0.11543 0.20900
Mn	Mn	0.24423 0.67185 0.83751 1.23600
Mn	Mn	0.12847 0.69604 0.96122 1.29000
Mn	Mn	0.77333 0.38053 0.15182 1.21400
Mn	Mn	0.87146 0.36054 0.00996 1.27500
Mn	Mn	0.00779 0.52477 -0.00887 1.23400
C 	C 	0.18012 0.79327 0.78532 0.21300
N 	N 	0.17762 0.73924 0.82657 -0.26500
N 	N 	0.13155 0.74811 0.87254 -0.18800
N 	N 	0.10669 0.80638 0.86116 -0.05200
N 	N 	0.13602 0.83577 0.80642 -0.09100
N 	N 	0.98100 0.72411 0.93328 -0.08400
N 	N 	0.02011 0.68040 0.95834 -0.23400
N 	N 	0.97742 0.61665 0.96589 -0.14700
N 	N 	0.90893 0.61636 0.94580 -0.10000
C 	C 	0.91194 0.68344 0.92610 0.23100
C 	C 	0.15719 0.62699 0.15534 0.20800
N 	N 	0.13026 0.64647 0.05124 -0.21600
N 	N 	0.17344 0.67605 0.10879 -0.13200
N 	N 	0.08112 0.53698 0.91664 -0.22200
N 	N 	0.11384 0.60155 0.89996 -0.19800
N 	N 	0.15544 0.59424 0.84927 -0.20900
N 	N 	0.15185 0.52505 0.83207 -0.11300
N 	N 	0.08824 0.58349 0.06258 -0.21300
N 	N 	0.10351 0.56897 0.12797 -0.12200
C 	C 	0.10885 0.48897 0.87672 0.09900
N 	N 	0.83518 0.30591 0.14596 -0.26300
N 	N 	0.87112 0.29957 0.09065 -0.19100
N 	N 	0.89902 0.24195 0.09089 -0.05200
N 	N 	0.88409 0.21018 0.14817 -0.10800
N 	N 	0.00376 0.31091 0.01944 -0.14300
N 	N 	0.97769 0.36655 0.00451 -0.18200
N 	N 	0.02932 0.42723 0.01578 -0.22600
N 	N 	0.09115 0.41260 0.04287 -0.10600
N 	N 	0.93146 0.47616 0.84838 -0.10300
N 	N 	0.92797 0.46964 0.91631 -0.17200
N 	N 	0.87279 0.41577 0.92552 -0.17700
N 	N 	0.84052 0.38325 0.86349 -0.12000
N 	N 	0.93682 0.51460 0.06583 -0.24300
N 	N 	0.89638 0.45135 0.07769 -0.19700
N 	N 	0.85924 0.45976 0.13187 -0.20700
N 	N 	0.87317 0.52939 0.15621 -0.13400
Cl	Cl	0.24907 0.70311 0.95558 -0.75600
Cl	Cl	0.75444 0.36168 0.02995 -0.80500
C 	C 	0.84433 0.24987 0.18266 0.20300
C 	C 	0.07339 0.33899 0.04379 0.09200
C 	C 	0.87642 0.42261 0.81637 0.22800
C 	C 	0.92254 0.56344 0.11528 0.22200
Mn	Mn	0.33768 0.26620 0.66621 1.23400
Mn	Mn	0.31323 0.38198 0.54263 1.28000
Mn	Mn	0.62907 0.73658 0.35172 1.21700
Mn	Mn	0.64915 0.63840 0.49345 1.28400
Mn	Mn	0.48472 0.50208 0.51218 1.27400
C 	C 	0.21611 0.32996 0.71842 0.21100
N 	N 	0.27057 0.33299 0.67752 -0.26500
N 	N 	0.26145 0.37902 0.63152 -0.18800
N 	N 	0.20275 0.40315 0.64255 -0.05700
N 	N 	0.17318 0.37354 0.69713 -0.10100
N 	N 	0.28572 0.52962 0.57108 -0.12000
N 	N 	0.32921 0.49027 0.54560 -0.20800
N 	N 	0.39300 0.53277 0.53791 -0.19000
N 	N 	0.39373 0.60117 0.55818 -0.10900
C 	C 	0.32673 0.59843 0.57826 0.21700
C 	C 	0.38194 0.35220 0.34844 0.21400
N 	N 	0.36239 0.38001 0.45234 -0.19600
N 	N 	0.33282 0.33628 0.39501 -0.12600
N 	N 	0.47263 0.42851 0.58645 -0.22800
N 	N 	0.40805 0.39620 0.60355 -0.19700
N 	N 	0.41548 0.35458 0.65417 -0.20600
N 	N 	0.48474 0.35771 0.67088 -0.11100
N 	N 	0.42547 0.42193 0.44063 -0.19700
N 	N 	0.43995 0.40598 0.37537 -0.11400
C 	C 	0.52073 0.40052 0.62607 0.10700
N 	N 	0.70355 0.67451 0.35721 -0.26300
N 	N 	0.71010 0.63892 0.41271 -0.19100
N 	N 	0.76857 0.61225 0.41323 -0.05200
N 	N 	0.80068 0.62751 0.35617 -0.10500
N 	N 	0.69882 0.50643 0.48323 -0.10600
N 	N 	0.64301 0.53229 0.49833 -0.21000
N 	N 	0.58236 0.48069 0.48723 -0.19100
N 	N 	0.59707 0.41894 0.46022 -0.09400
N 	N 	0.53389 0.57768 0.65511 -0.11300
N 	N 	0.54030 0.58147 0.58730 -0.19500
N 	N 	0.59400 0.63666 0.57797 -0.19600
N 	N 	0.62671 0.66885 0.64013 -0.12500
N 	N 	0.49496 0.57340 0.43773 -0.24600
N 	N 	0.55808 0.61373 0.42579 -0.19700
N 	N 	0.54984 0.65090 0.37172 -0.20900
N 	N 	0.47993 0.63698 0.34734 -0.13400
Cl	Cl	0.30590 0.26149 0.54825 -0.79800
Cl	Cl	0.64789 0.75522 0.47372 -0.76300
C 	C 	0.76031 0.66613 0.32106 0.20200
C 	C 	0.67078 0.43691 0.45915 0.10100
C 	C 	0.58746 0.63273 0.68720 0.22400
C 	C 	0.44594 0.58769 0.38836 0.21800
