data_image0
_chemical_formula_structural       Cd2S4N8C2H2C4H2C2H2C2H2C2H2C4H2C2H2C2H2C2H2C2H2C4
_chemical_formula_sum              "Cd2 S4 N8 C28 H20"
_cell_length_a       8.973
_cell_length_b       9.2498
_cell_length_c       10.0061
_cell_angle_alpha    99.915
_cell_angle_beta     99.601
_cell_angle_gamma    103.337

_space_group_name_H-M_alt    "P 1"
_space_group_IT_number       1

loop_
  _space_group_symop_operation_xyz
  'x, y, z'

loop_
  _atom_site_type_symbol
  _atom_site_label
  _atom_site_symmetry_multiplicity
  _atom_site_fract_x
  _atom_site_fract_y
  _atom_site_fract_z
  _atom_site_occupancy
  Cd  Cd1       1.0  0.88401  0.09623  0.24466  1.0000
  Cd  Cd2       1.0  0.11599  0.90377  0.75534  1.0000
  S   S1        1.0  0.75455  0.82025  0.28801  1.0000
  S   S2        1.0  0.24545  0.17975  0.71199  1.0000
  S   S3        1.0  0.68730  0.00115  0.98908  1.0000
  S   S4        1.0  0.31270  0.99885  0.01092  1.0000
  N   N1        1.0  0.93240  0.35800  0.22860  1.0000
  N   N2        1.0  0.06760  0.64200  0.77140  1.0000
  N   N3        1.0  0.68400  0.19620  0.31970  1.0000
  N   N4        1.0  0.31600  0.80380  0.68030  1.0000
  N   N5        1.0  0.95940  0.81680  0.53110  1.0000
  N   N6        1.0  0.04060  0.18320  0.46890  1.0000
  N   N7        1.0  0.91250  0.96590  0.83190  1.0000
  N   N8        1.0  0.08750  0.03410  0.16810  1.0000
  C   C1        1.0  0.82680  0.42020  0.26060  1.0000
  C   C2        1.0  0.17320  0.57980  0.73940  1.0000
  H   H1        1.0  0.83790  0.52180  0.25680  1.0000
  H   H2        1.0  0.16210  0.47820  0.74320  1.0000
  C   C3        1.0  0.68830  0.33810  0.30310  1.0000
  C   C4        1.0  0.31170  0.66190  0.69690  1.0000
  C   C5        1.0  0.56930  0.40620  0.32610  1.0000
  C   C6        1.0  0.43070  0.59380  0.67390  1.0000
  H   H3        1.0  0.57570  0.50470  0.31410  1.0000
  H   H4        1.0  0.42430  0.49530  0.68590  1.0000
  C   C7        1.0  0.44170  0.32540  0.36690  1.0000
  C   C8        1.0  0.55830  0.67460  0.63310  1.0000
  H   H5        1.0  0.35970  0.36790  0.38080  1.0000
  H   H6        1.0  0.64030  0.63210  0.61920  1.0000
  C   C9        1.0  0.43730  0.18140  0.38660  1.0000
  C   C10       1.0  0.56270  0.81860  0.61340  1.0000
  H   H7        1.0  0.35430  0.12620  0.41730  1.0000
  H   H8        1.0  0.64570  0.87380  0.58270  1.0000
  C   C11       1.0  0.55890  0.11970  0.35980  1.0000
  C   C12       1.0  0.44110  0.88030  0.64020  1.0000
  H   H9        1.0  0.55370  0.02080  0.37020  1.0000
  H   H10       1.0  0.44630  0.97920  0.62980  1.0000
  C   C13       1.0  0.06740  0.44690  0.19390  1.0000
  C   C14       1.0  0.93260  0.55310  0.80610  1.0000
  C   C15       1.0  0.14040  0.59540  0.26720  1.0000
  C   C16       1.0  0.85960  0.40460  0.73280  1.0000
  H   H11       1.0  0.10280  0.63860  0.34120  1.0000
  H   H12       1.0  0.89720  0.36140  0.65880  1.0000
  C   C17       1.0  0.27040  0.67890  0.22900  1.0000
  C   C18       1.0  0.72960  0.32110  0.77100  1.0000
  H   H13       1.0  0.31900  0.77860  0.27710  1.0000
  H   H14       1.0  0.68100  0.22140  0.72290  1.0000
  C   C19       1.0  0.32780  0.61510  0.12060  1.0000
  C   C20       1.0  0.67220  0.38490  0.87940  1.0000
  H   H15       1.0  0.41450  0.67160  0.09540  1.0000
  H   H16       1.0  0.58550  0.32840  0.90460  1.0000
  C   C21       1.0  0.25570  0.46690  0.04940  1.0000
  C   C22       1.0  0.74430  0.53310  0.95060  1.0000
  H   H17       1.0  0.29460  0.42350  0.97640  1.0000
  H   H18       1.0  0.70540  0.57650  0.02360  1.0000
  C   C23       1.0  0.12620  0.38230  0.08560  1.0000
  C   C24       1.0  0.87380  0.61770  0.91440  1.0000
  H   H19       1.0  0.07870  0.28240  0.03750  1.0000
  H   H20       1.0  0.92130  0.71760  0.96250  1.0000
  C   C25       1.0  0.87610  0.82100  0.43150  1.0000
  C   C26       1.0  0.12390  0.17900  0.56850  1.0000
  C   C27       1.0  0.82160  0.98120  0.89880  1.0000
  C   C28       1.0  0.17840  0.01880  0.10120  1.0000
