data_crystal

_cell_length_a    14.22560
_cell_length_b    14.46450
_cell_length_c    30.44290
_cell_angle_alpha 90.00000
_cell_angle_beta  96.10400
_cell_angle_gamma 90.00000

_symmetry_space_group_name_Hall 'P 1'
_symmetry_space_group_name_H-M  'P 1'

loop_
_symmetry_equiv_pos_as_xyz
 'x,y,z'

loop_
_atom_site_label
_atom_site_type_symbol
_atom_site_fract_x
_atom_site_fract_y
_atom_site_fract_z
Fe         Fe      0.69945   0.51999   0.45031
Fe         Fe      0.30055   0.51999   0.04969
Fe         Fe      0.19945   0.01999   0.45031
Fe         Fe      0.80055   0.01999   0.04969
Fe         Fe      0.30055   0.48001   0.54969
Fe         Fe      0.69945   0.48001   0.95031
Fe         Fe      0.80055   0.98001   0.54969
Fe         Fe      0.19945   0.98001   0.95031
Au         Au      0.45018   0.76886   0.45599
Au         Au      0.54983   0.76886   0.04401
Au         Au      0.95017   0.26886   0.45599
Au         Au      0.04982   0.26886   0.04401
Au         Au      0.54983   0.23114   0.54401
Au         Au      0.45018   0.23114   0.95599
Au         Au      0.04982   0.73114   0.54401
Au         Au      0.95017   0.73114   0.95599
Au         Au      0.95604   0.76354   0.44735
Au         Au      0.04396   0.76354   0.05265
Au         Au      0.45604   0.26354   0.44735
Au         Au      0.54396   0.26354   0.05265
Au         Au      0.04396   0.23646   0.55265
Au         Au      0.95604   0.23646   0.94735
Au         Au      0.54396   0.73646   0.55265
Au         Au      0.45604   0.73646   0.94735
C          C       0.85890   0.66570   0.45040
C          C       0.14110   0.66570   0.04960
C          C       0.35890   0.16570   0.45040
C          C       0.64110   0.16570   0.04960
C          C       0.14110   0.33430   0.54960
C          C       0.85890   0.33430   0.95040
C          C       0.64110   0.83430   0.54960
C          C       0.35890   0.83430   0.95040
C          C       0.54900   0.67470   0.44880
C          C       0.45100   0.67470   0.05120
C          C       0.04900   0.17470   0.44880
C          C       0.95100   0.17470   0.05120
C          C       0.45100   0.32530   0.55120
C          C       0.54900   0.32530   0.94880
C          C       0.95100   0.82530   0.55120
C          C       0.04900   0.82530   0.94880
C          C       0.54770   0.36550   0.44410
C          C       0.45230   0.36550   0.05590
C          C       0.04770   0.86550   0.44410
C          C       0.95230   0.86550   0.05590
C          C       0.45230   0.63450   0.55590
C          C       0.54770   0.63450   0.94410
C          C       0.95230   0.13450   0.55590
C          C       0.04770   0.13450   0.94410
C          C       0.85030   0.36410   0.45870
C          C       0.14970   0.36410   0.04130
C          C       0.35030   0.86410   0.45870
C          C       0.64970   0.86410   0.04130
C          C       0.14970   0.63590   0.54130
C          C       0.85030   0.63590   0.95870
C          C       0.64970   0.13590   0.54130
C          C       0.35030   0.13590   0.95870
N          N       0.79980   0.61160   0.45203
N          N       0.20020   0.61160   0.04797
N          N       0.29980   0.11160   0.45203
N          N       0.70020   0.11160   0.04797
N          N       0.20020   0.38840   0.54797
N          N       0.79980   0.38840   0.95203
N          N       0.70020   0.88840   0.54797
N          N       0.29980   0.88840   0.95203
N          N       0.60530   0.61800   0.44623
N          N       0.39470   0.61800   0.05377
N          N       0.10530   0.11800   0.44623
N          N       0.89470   0.11800   0.05377
N          N       0.39470   0.38200   0.55377
N          N       0.60530   0.38200   0.94623
N          N       0.89470   0.88200   0.55377
N          N       0.10530   0.88200   0.94623
N          N       0.60120   0.42610   0.44576
N          N       0.39880   0.42610   0.05424
N          N       0.10120   0.92610   0.44576
N          N       0.89880   0.92610   0.05424
N          N       0.39880   0.57390   0.55424
N          N       0.60120   0.57390   0.94576
N          N       0.89880   0.07390   0.55424
N          N       0.10120   0.07390   0.94576
N          N       0.79360   0.42100   0.45664
N          N       0.20640   0.42100   0.04336
N          N       0.29360   0.92100   0.45664
N          N       0.70640   0.92100   0.04336
N          N       0.20640   0.57900   0.54336
N          N       0.79360   0.57900   0.95664
N          N       0.70640   0.07900   0.54336
N          N       0.29360   0.07900   0.95664
N          N       0.69800   0.51560   0.38451
N          N       0.30200   0.51560   0.11549
N          N       0.19800   0.01560   0.38451
N          N       0.80200   0.01560   0.11549
N          N       0.30200   0.48440   0.61549
N          N       0.69800   0.48440   0.88451
N          N       0.80200   0.98440   0.61549
N          N       0.19800   0.98440   0.88451
C          C       0.77890   0.51170   0.36590
C          C       0.22110   0.51170   0.13410
C          C       0.27890   0.01170   0.36590
C          C       0.72110   0.01170   0.13410
C          C       0.22110   0.48830   0.63410
C          C       0.77890   0.48830   0.86590
C          C       0.72110   0.98830   0.63410
C          C       0.27890   0.98830   0.86590
H          H       0.83680   0.51520   0.38450
H          H       0.16320   0.51520   0.11550
H          H       0.33680   0.01520   0.38450
H          H       0.66320   0.01520   0.11550
H          H       0.16320   0.48480   0.61550
H          H       0.83680   0.48480   0.88450
H          H       0.66320   0.98480   0.61550
H          H       0.33680   0.98480   0.88450
C          C       0.78240   0.50270   0.32100
C          C       0.21760   0.50270   0.17900
C          C       0.28240   0.00270   0.32100
C          C       0.71760   0.00270   0.17900
C          C       0.21760   0.49730   0.67900
C          C       0.78240   0.49730   0.82100
C          C       0.71760   0.99730   0.67900
C          C       0.28240   0.99730   0.82100
H          H       0.84160   0.49930   0.30930
H          H       0.15840   0.49930   0.19070
H          H       0.34160   0.99930   0.30930
H          H       0.65840   0.99930   0.19070
H          H       0.15840   0.50070   0.69070
H          H       0.84160   0.50070   0.80930
H          H       0.65840   0.00070   0.69070
H          H       0.34160   0.00070   0.80930
C          C       0.69860   0.49860   0.29300
C          C       0.30140   0.49860   0.20700
C          C       0.19860   0.99860   0.29300
C          C       0.80140   0.99860   0.20700
C          C       0.30140   0.50140   0.70700
C          C       0.69860   0.50140   0.79300
C          C       0.80140   0.00140   0.70700
C          C       0.19860   0.00140   0.79300
C          C       0.61470   0.50570   0.31190
C          C       0.38530   0.50570   0.18810
C          C       0.11470   0.00570   0.31190
C          C       0.88530   0.00570   0.18810
C          C       0.38530   0.49430   0.68810
C          C       0.61470   0.49430   0.81190
C          C       0.88530   0.99430   0.68810
C          C       0.11470   0.99430   0.81190
H          H       0.55600   0.50470   0.29390
H          H       0.44400   0.50470   0.20610
H          H       0.05600   0.00470   0.29390
H          H       0.94400   0.00470   0.20610
H          H       0.44400   0.49530   0.70610
H          H       0.55600   0.49530   0.79390
H          H       0.94400   0.99530   0.70610
H          H       0.05600   0.99530   0.79390
C          C       0.61670   0.51440   0.35730
C          C       0.38330   0.51440   0.14270
C          C       0.11670   0.01440   0.35730
C          C       0.88330   0.01440   0.14270
C          C       0.38330   0.48560   0.64270
C          C       0.61670   0.48560   0.85730
C          C       0.88330   0.98560   0.64270
C          C       0.11670   0.98560   0.85730
H          H       0.55850   0.51970   0.36980
H          H       0.44150   0.51970   0.13020
H          H       0.05850   0.01970   0.36980
H          H       0.94150   0.01970   0.13020
H          H       0.44150   0.48030   0.63020
H          H       0.55850   0.48030   0.86980
H          H       0.94150   0.98030   0.63020
H          H       0.05850   0.98030   0.86980
C          C       0.70130   0.48530   0.24470
C          C       0.29870   0.48530   0.25530
C          C       0.20130   0.98530   0.24470
C          C       0.79870   0.98530   0.25530
C          C       0.29870   0.51470   0.75530
C          C       0.70130   0.51470   0.74470
C          C       0.79870   0.01470   0.75530
C          C       0.20130   0.01470   0.74470
C          C       0.77390   0.43470   0.22840
C          C       0.22610   0.43470   0.27160
C          C       0.27390   0.93470   0.22840
C          C       0.72610   0.93470   0.27160
C          C       0.22610   0.56530   0.77160
C          C       0.77390   0.56530   0.72840
C          C       0.72610   0.06530   0.77160
C          C       0.27390   0.06530   0.72840
H          H       0.82310   0.40770   0.24770
H          H       0.17690   0.40770   0.25230
H          H       0.32310   0.90770   0.24770
H          H       0.67690   0.90770   0.25230
H          H       0.17690   0.59230   0.75230
H          H       0.82310   0.59230   0.74770
H          H       0.67690   0.09230   0.75230
H          H       0.32310   0.09230   0.74770
N          N       0.63020   0.51610   0.17420
N          N       0.36980   0.51610   0.32580
N          N       0.13020   0.01610   0.17420
N          N       0.86980   0.01610   0.32580
N          N       0.36980   0.48390   0.82580
N          N       0.63020   0.48390   0.67420
N          N       0.86980   0.98390   0.82580
N          N       0.13020   0.98390   0.67420
N          N       0.63070   0.52220   0.21830
N          N       0.36930   0.52220   0.28170
N          N       0.13070   0.02220   0.21830
N          N       0.86930   0.02220   0.28170
N          N       0.36930   0.47780   0.78170
N          N       0.63070   0.47780   0.71830
N          N       0.86930   0.97780   0.78170
N          N       0.13070   0.97780   0.71830
C          C       0.77150   0.42550   0.18380
C          C       0.22850   0.42550   0.31620
C          C       0.27150   0.92550   0.18380
C          C       0.72850   0.92550   0.31620
C          C       0.22850   0.57450   0.81620
C          C       0.77150   0.57450   0.68380
C          C       0.72850   0.07450   0.81620
C          C       0.27150   0.07450   0.68380
H          H       0.81830   0.39060   0.17120
H          H       0.18170   0.39060   0.32880
H          H       0.31830   0.89060   0.17120
H          H       0.68170   0.89060   0.32880
H          H       0.18170   0.60940   0.82880
H          H       0.81830   0.60940   0.67120
H          H       0.68170   0.10940   0.82880
H          H       0.31830   0.10940   0.67120
C          C       0.69880   0.46850   0.15740
C          C       0.30120   0.46850   0.34260
C          C       0.19880   0.96850   0.15740
C          C       0.80120   0.96850   0.34260
C          C       0.30120   0.53150   0.84260
C          C       0.69880   0.53150   0.65740
C          C       0.80120   0.03150   0.84260
C          C       0.19880   0.03150   0.65740
C          C       0.69620   0.46880   0.10850
C          C       0.30380   0.46880   0.39150
C          C       0.19620   0.96880   0.10850
C          C       0.80380   0.96880   0.39150
C          C       0.30380   0.53120   0.89150
C          C       0.69620   0.53120   0.60850
C          C       0.80380   0.03120   0.89150
C          C       0.19620   0.03120   0.60850
C          C       0.66710   0.54680   0.08440
C          C       0.33290   0.54680   0.41560
C          C       0.16710   0.04680   0.08440
C          C       0.83290   0.04680   0.41560
C          C       0.33290   0.45320   0.91560
C          C       0.66710   0.45320   0.58440
C          C       0.83290   0.95320   0.91560
C          C       0.16710   0.95320   0.58440
H          H       0.64450   0.59930   0.09880
H          H       0.35550   0.59930   0.40120
H          H       0.14450   0.09930   0.09880
H          H       0.85550   0.09930   0.40120
H          H       0.35550   0.40070   0.90120
H          H       0.64450   0.40070   0.59880
H          H       0.85550   0.90070   0.90120
H          H       0.14450   0.90070   0.59880
C          C       0.67110   0.54790   0.03930
C          C       0.32890   0.54790   0.46070
C          C       0.17110   0.04790   0.03930
C          C       0.82890   0.04790   0.46070
C          C       0.32890   0.45210   0.96070
C          C       0.67110   0.45210   0.53930
C          C       0.82890   0.95210   0.96070
C          C       0.17110   0.95210   0.53930
H          H       0.65340   0.60300   0.02360
H          H       0.34660   0.60300   0.47640
H          H       0.15340   0.10300   0.02360
H          H       0.84660   0.10300   0.47640
H          H       0.34660   0.39700   0.97640
H          H       0.65340   0.39700   0.52360
H          H       0.84660   0.89700   0.97640
H          H       0.15340   0.89700   0.52360
C          C       0.72330   0.39890   0.03980
C          C       0.27670   0.39890   0.46020
C          C       0.22330   0.89890   0.03980
C          C       0.77670   0.89890   0.46020
C          C       0.27670   0.60110   0.96020
C          C       0.72330   0.60110   0.53980
C          C       0.77670   0.10110   0.96020
C          C       0.22330   0.10110   0.53980
H          H       0.74080   0.34550   0.02440
H          H       0.25920   0.34550   0.47560
H          H       0.24080   0.84550   0.02440
H          H       0.75920   0.84550   0.47560
H          H       0.25920   0.65450   0.97560
H          H       0.74080   0.65450   0.52440
H          H       0.75920   0.15450   0.97560
H          H       0.24080   0.15450   0.52440
C          C       0.72470   0.39370   0.08540
C          C       0.27530   0.39370   0.41460
C          C       0.22470   0.89370   0.08540
C          C       0.77530   0.89370   0.41460
C          C       0.27530   0.60630   0.91460
C          C       0.72470   0.60630   0.58540
C          C       0.77530   0.10630   0.91460
C          C       0.22470   0.10630   0.58540
H          H       0.74510   0.33870   0.10060
H          H       0.25490   0.33870   0.39940
H          H       0.24510   0.83870   0.10060
H          H       0.75490   0.83870   0.39940
H          H       0.25490   0.66130   0.89940
H          H       0.74510   0.66130   0.60060
H          H       0.75490   0.16130   0.89940
H          H       0.24510   0.16130   0.60060
N          N       0.69860   0.47510   0.01636
N          N       0.30140   0.47510   0.48364
N          N       0.19860   0.97510   0.01636
N          N       0.80140   0.97510   0.48364
N          N       0.30140   0.52490   0.98364
N          N       0.69860   0.52490   0.51636
N          N       0.80140   0.02490   0.98364
N          N       0.19860   0.02490   0.51636
O          O       0.01950   0.50310   0.35560
O          O       0.98050   0.50310   0.14440
O          O       0.51950   0.00310   0.35560
O          O       0.48050   0.00310   0.14440
O          O       0.98050   0.49690   0.64440
O          O       0.01950   0.49690   0.85560
O          O       0.48050   0.99690   0.64440
O          O       0.51950   0.99690   0.85560
H          H       0.06950   0.53270   0.35310
H          H       0.93050   0.53270   0.14690
H          H       0.56950   0.03270   0.35310
H          H       0.43050   0.03270   0.14690
H          H       0.93050   0.46730   0.64690
H          H       0.06950   0.46730   0.85310
H          H       0.43050   0.96730   0.64690
H          H       0.56950   0.96730   0.85310
C          C       0.05470   0.50490   0.43450
C          C       0.94530   0.50490   0.06550
C          C       0.55470   0.00490   0.43450
C          C       0.44530   0.00490   0.06550
C          C       0.94530   0.49510   0.56550
C          C       0.05470   0.49510   0.93450
C          C       0.44530   0.99510   0.56550
C          C       0.55470   0.99510   0.93450
H          H       0.10050   0.55260   0.42840
H          H       0.89950   0.55260   0.07160
H          H       0.60050   0.05260   0.42840
H          H       0.39950   0.05260   0.07160
H          H       0.89950   0.44740   0.57160
H          H       0.10050   0.44740   0.92840
H          H       0.39950   0.94740   0.57160
H          H       0.60050   0.94740   0.92840
H          H       0.08190   0.46580   0.45890
H          H       0.91810   0.46580   0.04110
H          H       0.58190   0.96580   0.45890
H          H       0.41810   0.96580   0.04110
H          H       0.91810   0.53420   0.54110
H          H       0.08190   0.53420   0.95890
H          H       0.41810   0.03420   0.54110
H          H       0.58190   0.03420   0.95890
H          H       0.99700   0.53440   0.44270
H          H       0.00300   0.53440   0.05730
H          H       0.49700   0.03440   0.44270
H          H       0.50300   0.03440   0.05730
H          H       0.00300   0.46560   0.55730
H          H       0.99700   0.46560   0.94270
H          H       0.50300   0.96560   0.55730
H          H       0.49700   0.96560   0.94270
C          C       0.03150   0.44770   0.39470
C          C       0.96850   0.44770   0.10530
C          C       0.53150   0.94770   0.39470
C          C       0.46850   0.94770   0.10530
C          C       0.96850   0.55230   0.60530
C          C       0.03150   0.55230   0.89470
C          C       0.46850   0.05230   0.60530
C          C       0.53150   0.05230   0.89470
H          H       0.08290   0.40240   0.39220
H          H       0.91710   0.40240   0.10780
H          H       0.58290   0.90240   0.39220
H          H       0.41710   0.90240   0.10780
H          H       0.91710   0.59760   0.60780
H          H       0.08290   0.59760   0.89220
H          H       0.41710   0.09760   0.60780
H          H       0.58290   0.09760   0.89220
H          H       0.97260   0.41280   0.39750
H          H       0.02740   0.41280   0.10250
H          H       0.47260   0.91280   0.39750
H          H       0.52740   0.91280   0.10250
H          H       0.02740   0.58720   0.60250
H          H       0.97260   0.58720   0.89750
H          H       0.52740   0.08720   0.60250
H          H       0.47260   0.08720   0.89750
O          O       0.15050   0.62770   0.34020
O          O       0.84950   0.62770   0.15980
O          O       0.65050   0.12770   0.34020
O          O       0.34950   0.12770   0.15980
O          O       0.84950   0.37230   0.65980
O          O       0.15050   0.37230   0.84020
O          O       0.34950   0.87230   0.65980
O          O       0.65050   0.87230   0.84020
H          H       0.16980   0.64310   0.31610
H          H       0.83020   0.64310   0.18390
H          H       0.66980   0.14310   0.31610
H          H       0.33020   0.14310   0.18390
H          H       0.83020   0.35690   0.68390
H          H       0.16980   0.35690   0.81610
H          H       0.33020   0.85690   0.68390
H          H       0.66980   0.85690   0.81610
C          C       0.22010   0.77080   0.35690
C          C       0.77990   0.77080   0.14310
C          C       0.72010   0.27080   0.35690
C          C       0.27990   0.27080   0.14310
C          C       0.77990   0.22920   0.64310
C          C       0.22010   0.22920   0.85690
C          C       0.27990   0.72920   0.64310
C          C       0.72010   0.72920   0.85690
H          H       0.28370   0.74780   0.36660
H          H       0.71630   0.74780   0.13340
H          H       0.78370   0.24780   0.36660
H          H       0.21630   0.24780   0.13340
H          H       0.71630   0.25220   0.63340
H          H       0.28370   0.25220   0.86660
H          H       0.21630   0.75220   0.63340
H          H       0.78370   0.75220   0.86660
H          H       0.21060   0.83060   0.37090
H          H       0.78940   0.83060   0.12910
H          H       0.71060   0.33060   0.37090
H          H       0.28940   0.33060   0.12910
H          H       0.78940   0.16940   0.62910
H          H       0.21060   0.16940   0.87090
H          H       0.28940   0.66940   0.62910
H          H       0.71060   0.66940   0.87090
H          H       0.21290   0.77820   0.32470
H          H       0.78710   0.77820   0.17530
H          H       0.71290   0.27820   0.32470
H          H       0.28710   0.27820   0.17530
H          H       0.78710   0.22180   0.67530
H          H       0.21290   0.22180   0.82470
H          H       0.28710   0.72180   0.67530
H          H       0.71290   0.72180   0.82470
C          C       0.15260   0.70720   0.36910
C          C       0.84740   0.70720   0.13090
C          C       0.65260   0.20720   0.36910
C          C       0.34740   0.20720   0.13090
C          C       0.84740   0.29280   0.63090
C          C       0.15260   0.29280   0.86910
C          C       0.34740   0.79280   0.63090
C          C       0.65260   0.79280   0.86910
H          H       0.08940   0.73670   0.36680
H          H       0.91060   0.73670   0.13320
H          H       0.58940   0.23670   0.36680
H          H       0.41060   0.23670   0.13320
H          H       0.91060   0.26330   0.63320
H          H       0.08940   0.26330   0.86680
H          H       0.41060   0.76330   0.63320
H          H       0.58940   0.76330   0.86680
H          H       0.16910   0.68750   0.40010
H          H       0.83090   0.68750   0.09990
H          H       0.66910   0.18750   0.40010
H          H       0.33090   0.18750   0.09990
H          H       0.83090   0.31250   0.59990
H          H       0.16910   0.31250   0.90010
H          H       0.33090   0.81250   0.59990
H          H       0.66910   0.81250   0.90010
O          O       0.99020   0.38000   0.29190
O          O       0.00980   0.38000   0.20810
O          O       0.49020   0.88000   0.29190
O          O       0.50980   0.88000   0.20810
O          O       0.00980   0.62000   0.70810
O          O       0.99020   0.62000   0.79190
O          O       0.50980   0.12000   0.70810
O          O       0.49020   0.12000   0.79190
C          C       0.01380   0.22620   0.32410
C          C       0.98620   0.22620   0.17590
C          C       0.51380   0.72620   0.32410
C          C       0.48620   0.72620   0.17590
C          C       0.98620   0.77380   0.67590
C          C       0.01380   0.77380   0.82410
C          C       0.48620   0.27380   0.67590
C          C       0.51380   0.27380   0.82410
H          H       0.04620   0.19920   0.30030
H          H       0.95380   0.19920   0.19970
H          H       0.54620   0.69920   0.30030
H          H       0.45380   0.69920   0.19970
H          H       0.95380   0.80080   0.69970
H          H       0.04620   0.80080   0.80030
H          H       0.45380   0.30080   0.69970
H          H       0.54620   0.30080   0.80030
H          H       0.97880   0.17790   0.33800
H          H       0.02120   0.17790   0.16200
H          H       0.47880   0.67790   0.33800
H          H       0.52120   0.67790   0.16200
H          H       0.02120   0.82210   0.66200
H          H       0.97880   0.82210   0.83800
H          H       0.52120   0.32210   0.66200
H          H       0.47880   0.32210   0.83800
H          H       0.06050   0.25390   0.34620
H          H       0.93950   0.25390   0.15380
H          H       0.56050   0.75390   0.34620
H          H       0.43950   0.75390   0.15380
H          H       0.93950   0.74610   0.65380
H          H       0.06050   0.74610   0.84620
H          H       0.43950   0.24610   0.65380
H          H       0.56050   0.24610   0.84620
C          C       0.95280   0.29220   0.30720
C          C       0.04720   0.29220   0.19280
C          C       0.45280   0.79220   0.30720
C          C       0.54720   0.79220   0.19280
C          C       0.04720   0.70780   0.69280
C          C       0.95280   0.70780   0.80720
C          C       0.54720   0.20780   0.69280
C          C       0.45280   0.20780   0.80720
H          H       0.91040   0.30710   0.32990
H          H       0.08960   0.30710   0.17010
H          H       0.41040   0.80710   0.32990
H          H       0.58960   0.80710   0.17010
H          H       0.08960   0.69290   0.67010
H          H       0.91040   0.69290   0.82990
H          H       0.58960   0.19290   0.67010
H          H       0.41040   0.19290   0.82990
H          H       0.91300   0.26450   0.28190
H          H       0.08700   0.26450   0.21810
H          H       0.41300   0.76450   0.28190
H          H       0.58700   0.76450   0.21810
H          H       0.08700   0.73550   0.71810
H          H       0.91300   0.73550   0.78190
H          H       0.58700   0.23550   0.71810
H          H       0.41300   0.23550   0.78190
O          O       0.10280   0.64100   0.25040
O          O       0.89720   0.64100   0.24960
O          O       0.60280   0.14100   0.25040
O          O       0.39720   0.14100   0.24960
O          O       0.89720   0.35900   0.74960
O          O       0.10280   0.35900   0.75040
O          O       0.39720   0.85900   0.74960
O          O       0.60280   0.85900   0.75040
C          C       0.08800   0.74000   0.18950
C          C       0.91200   0.74000   0.31050
C          C       0.58800   0.24000   0.18950
C          C       0.41200   0.24000   0.31050
C          C       0.91200   0.26000   0.81050
C          C       0.08800   0.26000   0.68950
C          C       0.41200   0.76000   0.81050
C          C       0.58800   0.76000   0.68950
H          H       0.12210   0.78680   0.17380
H          H       0.87790   0.78680   0.32620
H          H       0.62210   0.28680   0.17380
H          H       0.37790   0.28680   0.32620
H          H       0.87790   0.21320   0.82620
H          H       0.12210   0.21320   0.67380
H          H       0.37790   0.71320   0.82620
H          H       0.62210   0.71320   0.67380
H          H       0.03090   0.76840   0.19920
H          H       0.96910   0.76840   0.30080
H          H       0.53090   0.26840   0.19920
H          H       0.46910   0.26840   0.30080
H          H       0.96910   0.23160   0.80080
H          H       0.03090   0.23160   0.69920
H          H       0.46910   0.73160   0.80080
H          H       0.53090   0.73160   0.69920
H          H       0.07010   0.68860   0.16960
H          H       0.92990   0.68860   0.33040
H          H       0.57010   0.18860   0.16960
H          H       0.42990   0.18860   0.33040
H          H       0.92990   0.31140   0.83040
H          H       0.07010   0.31140   0.66960
H          H       0.42990   0.81140   0.83040
H          H       0.57010   0.81140   0.66960
C          C       0.14600   0.70870   0.22590
C          C       0.85400   0.70870   0.27410
C          C       0.64600   0.20870   0.22590
C          C       0.35400   0.20870   0.27410
C          C       0.85400   0.29130   0.77410
C          C       0.14600   0.29130   0.72590
C          C       0.35400   0.79130   0.77410
C          C       0.64600   0.79130   0.72590
H          H       0.16420   0.76170   0.24550
H          H       0.83580   0.76170   0.25450
H          H       0.66420   0.26170   0.24550
H          H       0.33580   0.26170   0.25450
H          H       0.83580   0.23830   0.75450
H          H       0.16420   0.23830   0.74550
H          H       0.33580   0.73830   0.75450
H          H       0.66420   0.73830   0.74550
H          H       0.20400   0.68250   0.21580
H          H       0.79600   0.68250   0.28420
H          H       0.70400   0.18250   0.21580
H          H       0.29600   0.18250   0.28420
H          H       0.79600   0.31750   0.78420
H          H       0.20400   0.31750   0.71580
H          H       0.29600   0.81750   0.78420
H          H       0.70400   0.81750   0.71580
H          H       0.02510   0.36900   0.27170
H          H       0.97490   0.36900   0.22830
H          H       0.52510   0.86900   0.27170
H          H       0.47490   0.86900   0.22830
H          H       0.97490   0.63100   0.72830
H          H       0.02510   0.63100   0.77170
H          H       0.47490   0.13100   0.72830
H          H       0.52510   0.13100   0.77170
H          H       0.02260   0.40560   0.31360
H          H       0.97740   0.40560   0.18640
H          H       0.52260   0.90560   0.31360
H          H       0.47740   0.90560   0.18640
H          H       0.97740   0.59440   0.68640
H          H       0.02260   0.59440   0.81360
H          H       0.47740   0.09440   0.68640
H          H       0.52260   0.09440   0.81360
H          H       0.08700   0.59620   0.23360
H          H       0.91300   0.59620   0.26640
H          H       0.58700   0.09620   0.23360
H          H       0.41300   0.09620   0.26640
H          H       0.91300   0.40380   0.76640
H          H       0.08700   0.40380   0.73360
H          H       0.41300   0.90380   0.76640
H          H       0.58700   0.90380   0.73360
H          H       0.05400   0.66420   0.25940
H          H       0.94600   0.66420   0.24060
H          H       0.55400   0.16420   0.25940
H          H       0.44600   0.16420   0.24060
H          H       0.94600   0.33580   0.74060
H          H       0.05400   0.33580   0.75940
H          H       0.44600   0.83580   0.74060
H          H       0.55400   0.83580   0.75940
