data_crystal

_cell_length_a    26.08900
_cell_length_b    26.08900
_cell_length_c    26.08900
_cell_angle_alpha 90.00000
_cell_angle_beta  90.00000
_cell_angle_gamma 90.00000

_symmetry_space_group_name_Hall 'P 1'
_symmetry_space_group_name_H-M  'P 1'

loop_
_symmetry_equiv_pos_as_xyz
 'x,y,z'

loop_
_atom_site_label
_atom_site_type_symbol
_atom_site_fract_x
_atom_site_fract_y
_atom_site_fract_z
_atom_site_charge
Zn         Zn      0.29283   0.29282   0.20617   0.9579800000
Zn         Zn      0.70719   0.70719   0.79384   0.9581470000
Zn         Zn      0.70719   0.70719   0.20617   0.9579800000
Zn         Zn      0.29283   0.29283   0.79384   0.9579710000
Zn         Zn      0.70719   0.29283   0.79384   0.9580340000
Zn         Zn      0.29283   0.70718   0.20617   0.9579960000
Zn         Zn      0.29283   0.70719   0.79384   0.9580600000
Zn         Zn      0.70719   0.29282   0.20617   0.9579570000
Zn         Zn      0.20617   0.29282   0.29282   0.9579610000
Zn         Zn      0.79384   0.70719   0.70718   0.9579530000
Zn         Zn      0.20617   0.70718   0.70718   0.9580360000
Zn         Zn      0.79384   0.29282   0.29282   0.9580400000
Zn         Zn      0.79384   0.70718   0.29283   0.9580650000
Zn         Zn      0.20617   0.29282   0.70718   0.9579960000
Zn         Zn      0.79384   0.29282   0.70718   0.9579870000
Zn         Zn      0.20617   0.70719   0.29282   0.9580590000
Zn         Zn      0.29282   0.20617   0.29282   0.9580910000
Zn         Zn      0.70719   0.79384   0.70718   0.9579400000
Zn         Zn      0.70718   0.20617   0.70718   0.9580570000
Zn         Zn      0.29283   0.79384   0.29282   0.9579250000
Zn         Zn      0.29282   0.79384   0.70719   0.9578110000
Zn         Zn      0.70718   0.20617   0.29282   0.9580230000
Zn         Zn      0.70718   0.79384   0.29282   0.9579280000
Zn         Zn      0.29282   0.20617   0.70719   0.9580840000
Zn         Zn      0.20608   0.79393   0.79393   0.9557340000
Zn         Zn      0.79393   0.20608   0.20608   0.9558720000
Zn         Zn      0.20608   0.20608   0.20608   0.9557980000
Zn         Zn      0.79393   0.79393   0.79393   0.9556260000
Zn         Zn      0.79393   0.20608   0.79393   0.9558870000
Zn         Zn      0.20608   0.79393   0.20608   0.9556090000
Zn         Zn      0.79393   0.79393   0.20608   0.9555870000
Zn         Zn      0.20608   0.20608   0.79393   0.9560710000
O          O       0.24943   0.24943   0.24943  -1.0039050000
O          O       0.75058   0.75058   0.75058  -1.0039030000
O          O       0.75058   0.75058   0.24943  -1.0038470000
O          O       0.24943   0.24943   0.75058  -1.0040470000
O          O       0.75058   0.24943   0.75058  -1.0038770000
O          O       0.24943   0.75058   0.24943  -1.0038720000
O          O       0.24943   0.75058   0.75058  -1.0038640000
O          O       0.75058   0.24943   0.24943  -1.0038700000
O          O       0.28035   0.36646   0.21846  -0.5426940000
O          O       0.71966   0.63355   0.78155  -0.5429190000
O          O       0.71966   0.63355   0.21846  -0.5426890000
O          O       0.28035   0.36646   0.78155  -0.5426850000
O          O       0.71966   0.36646   0.78155  -0.5427440000
O          O       0.28035   0.63355   0.21846  -0.5427070000
O          O       0.28036   0.63355   0.78155  -0.5427810000
O          O       0.71966   0.36646   0.21846  -0.5426270000
O          O       0.21846   0.28035   0.36646  -0.5427040000
O          O       0.78155   0.71966   0.63355  -0.5428320000
O          O       0.21846   0.71966   0.63355  -0.5431380000
O          O       0.78155   0.28035   0.36646  -0.5426470000
O          O       0.78155   0.71966   0.36646  -0.5429870000
O          O       0.21846   0.28035   0.63355  -0.5426910000
O          O       0.78155   0.28035   0.63355  -0.5425270000
O          O       0.21846   0.71965   0.36646  -0.5429610000
O          O       0.36646   0.21846   0.28035  -0.5428510000
O          O       0.63355   0.78155   0.71966  -0.5424510000
O          O       0.63355   0.21846   0.71966  -0.5427890000
O          O       0.36646   0.78155   0.28035  -0.5425140000
O          O       0.36646   0.78155   0.71965  -0.5424110000
O          O       0.63355   0.21846   0.28035  -0.5427760000
O          O       0.63355   0.78155   0.28035  -0.5425310000
O          O       0.36646   0.21846   0.71965  -0.5427710000
O          O       0.36646   0.28035   0.78155  -0.5426190000
O          O       0.63355   0.71965   0.21846  -0.5428170000
O          O       0.63355   0.71966   0.78155  -0.5431270000
O          O       0.36646   0.28035   0.21846  -0.5426580000
O          O       0.36646   0.71966   0.21846  -0.5427630000
O          O       0.63355   0.28035   0.78155  -0.5426920000
O          O       0.63355   0.28035   0.21846  -0.5426180000
O          O       0.36646   0.71966   0.78155  -0.5431460000
O          O       0.28035   0.21846   0.63355  -0.5427730000
O          O       0.71966   0.78155   0.36646  -0.5425800000
O          O       0.71966   0.21846   0.36646  -0.5427950000
O          O       0.28036   0.78155   0.63355  -0.5424260000
O          O       0.71966   0.78155   0.63355  -0.5424310000
O          O       0.28035   0.21846   0.36646  -0.5428390000
O          O       0.28035   0.78155   0.36646  -0.5424590000
O          O       0.71966   0.21846   0.63355  -0.5428650000
O          O       0.21846   0.36646   0.71965  -0.5427080000
O          O       0.78155   0.63355   0.28035  -0.5428270000
O          O       0.21846   0.63355   0.28035  -0.5428530000
O          O       0.78155   0.36646   0.71966  -0.5425370000
O          O       0.78155   0.36646   0.28035  -0.5428040000
O          O       0.21846   0.63355   0.71966  -0.5427760000
O          O       0.78155   0.63355   0.71965  -0.5426620000
O          O       0.21846   0.36646   0.28035  -0.5426820000
O          O       0.28037   0.86727   0.71964  -0.5425460000
O          O       0.71964   0.13274   0.28037  -0.5427110000
O          O       0.71964   0.13274   0.71964  -0.5426580000
O          O       0.28037   0.86727   0.28037  -0.5427570000
O          O       0.71964   0.86727   0.28037  -0.5427490000
O          O       0.28037   0.13274   0.71964  -0.5425180000
O          O       0.28037   0.13274   0.28037  -0.5427300000
O          O       0.71964   0.86727   0.71964  -0.5427160000
O          O       0.21840   0.78162   0.86733  -0.5420200000
O          O       0.78162   0.21839   0.13268  -0.5424630000
O          O       0.21839   0.21839   0.13268  -0.5423550000
O          O       0.78162   0.78162   0.86733  -0.5417680000
O          O       0.78162   0.21839   0.86733  -0.5424730000
O          O       0.21839   0.78161   0.13268  -0.5421430000
O          O       0.78162   0.78162   0.13268  -0.5421470000
O          O       0.21839   0.21839   0.86733  -0.5427280000
O          O       0.28037   0.71964   0.13273  -0.5428730000
O          O       0.71964   0.28037   0.86727  -0.5425960000
O          O       0.71964   0.71964   0.86727  -0.5431210000
O          O       0.28037   0.28037   0.13273  -0.5426320000
O          O       0.71964   0.28037   0.13273  -0.5425470000
O          O       0.28037   0.71964   0.86727  -0.5429190000
O          O       0.28037   0.28037   0.86727  -0.5423950000
O          O       0.71964   0.71964   0.13273  -0.5428020000
O          O       0.21839   0.86733   0.21839  -0.5423720000
O          O       0.78162   0.13268   0.78162  -0.5424160000
O          O       0.21839   0.13268   0.78162  -0.5425650000
O          O       0.78162   0.86733   0.21839  -0.5423820000
O          O       0.78162   0.86733   0.78162  -0.5423910000
O          O       0.21839   0.13268   0.21839  -0.5422780000
O          O       0.78162   0.13268   0.21839  -0.5424400000
O          O       0.21840   0.86733   0.78162  -0.5427190000
O          O       0.86733   0.21839   0.78162  -0.5427960000
O          O       0.13268   0.78162   0.21839  -0.5418950000
O          O       0.13268   0.21839   0.21839  -0.5423370000
O          O       0.86733   0.78162   0.78162  -0.5421020000
O          O       0.86733   0.78162   0.21839  -0.5419410000
O          O       0.13268   0.21839   0.78162  -0.5426010000
O          O       0.13268   0.78162   0.78162  -0.5420640000
O          O       0.86733   0.21839   0.21839  -0.5423770000
O          O       0.86727   0.28037   0.28037  -0.5426710000
O          O       0.13274   0.71964   0.71964  -0.5429300000
O          O       0.13274   0.71964   0.28037  -0.5428690000
O          O       0.86728   0.28037   0.71964  -0.5425530000
O          O       0.86728   0.71964   0.71964  -0.5431160000
O          O       0.13274   0.28037   0.28037  -0.5426390000
O          O       0.13274   0.28037   0.71964  -0.5423420000
O          O       0.86727   0.71964   0.28037  -0.5429980000
C          C       0.24953   0.38866   0.24953   0.5890240000
C          C       0.75048   0.61135   0.75048   0.5891450000
C          C       0.75048   0.61134   0.24953   0.5891120000
C          C       0.24953   0.38866   0.75048   0.5889820000
C          C       0.75048   0.38866   0.75048   0.5888210000
C          C       0.24953   0.61135   0.24953   0.5892060000
C          C       0.24953   0.61135   0.75048   0.5891020000
C          C       0.75048   0.38866   0.24953   0.5890330000
C          C       0.24953   0.24953   0.38866   0.5891490000
C          C       0.75048   0.75048   0.61135   0.5890240000
C          C       0.24953   0.75048   0.61135   0.5893000000
C          C       0.75048   0.24953   0.38866   0.5890510000
C          C       0.75048   0.75048   0.38866   0.5893570000
C          C       0.24953   0.24953   0.61135   0.5890050000
C          C       0.75048   0.24953   0.61135   0.5889720000
C          C       0.24953   0.75048   0.38866   0.5890720000
C          C       0.38866   0.24953   0.24953   0.5890930000
C          C       0.61135   0.75048   0.75048   0.5892740000
C          C       0.61135   0.24953   0.75048   0.5890740000
C          C       0.38866   0.75048   0.24953   0.5890000000
C          C       0.38867   0.75048   0.75048   0.5892970000
C          C       0.61135   0.24953   0.24953   0.5889190000
C          C       0.61135   0.75048   0.24953   0.5890040000
C          C       0.38866   0.24953   0.75048   0.5890540000
C          C       0.24939   0.88930   0.75062   0.5924510000
C          C       0.75062   0.11071   0.24939   0.5922390000
C          C       0.75062   0.11071   0.75062   0.5920900000
C          C       0.24939   0.88930   0.24939   0.5923080000
C          C       0.75062   0.88930   0.24939   0.5923280000
C          C       0.24939   0.11071   0.75062   0.5921950000
C          C       0.24939   0.11070   0.24939   0.5921140000
C          C       0.75062   0.88930   0.75062   0.5922480000
C          C       0.24939   0.75062   0.88930   0.5920740000
C          C       0.75062   0.24939   0.11070   0.5921970000
C          C       0.24939   0.24939   0.11070   0.5922030000
C          C       0.75062   0.75062   0.88930   0.5921050000
C          C       0.75062   0.24939   0.88930   0.5922420000
C          C       0.24939   0.75062   0.11070   0.5922260000
C          C       0.75062   0.75062   0.11071   0.5922250000
C          C       0.24939   0.24939   0.88930   0.5922170000
C          C       0.88931   0.24939   0.75062   0.5925110000
C          C       0.11071   0.75062   0.24939   0.5919830000
C          C       0.11071   0.24939   0.24939   0.5921670000
C          C       0.88931   0.75062   0.75062   0.5922300000
C          C       0.88930   0.75062   0.24939   0.5920940000
C          C       0.11071   0.24939   0.75062   0.5920800000
C          C       0.11071   0.75062   0.75062   0.5921180000
C          C       0.88930   0.24939   0.24939   0.5921500000
C          C       0.24977   0.44615   0.24977  -0.0313260000
C          C       0.75024   0.55386   0.75024  -0.0310650000
C          C       0.75024   0.55386   0.24977  -0.0313310000
C          C       0.24977   0.44615   0.75024  -0.0312210000
C          C       0.75024   0.44615   0.75024  -0.0313980000
C          C       0.24977   0.55386   0.24976  -0.0312040000
C          C       0.24977   0.55386   0.75024  -0.0310560000
C          C       0.75024   0.44615   0.24977  -0.0315080000
C          C       0.24977   0.24977   0.44615  -0.0312550000
C          C       0.75024   0.75024   0.55386  -0.0312580000
C          C       0.24977   0.75024   0.55386  -0.0314760000
C          C       0.75024   0.24977   0.44615  -0.0311300000
C          C       0.75024   0.75024   0.44615  -0.0313840000
C          C       0.24977   0.24977   0.55386  -0.0312430000
C          C       0.75024   0.24977   0.55386  -0.0311400000
C          C       0.24977   0.75024   0.44615  -0.0311950000
C          C       0.44615   0.24977   0.24977  -0.0312060000
C          C       0.55386   0.75024   0.75024  -0.0315800000
C          C       0.55386   0.24977   0.75024  -0.0311780000
C          C       0.44615   0.75024   0.24977  -0.0315180000
C          C       0.44615   0.75024   0.75024  -0.0314890000
C          C       0.55386   0.24977   0.24977  -0.0309590000
C          C       0.55386   0.75024   0.24977  -0.0311420000
C          C       0.44615   0.24977   0.75024  -0.0313280000
C          C       0.24940   0.94650   0.75061  -0.0330900000
C          C       0.75061   0.05351   0.24939  -0.0330920000
C          C       0.75061   0.05351   0.75061  -0.0328890000
C          C       0.24940   0.94650   0.24940  -0.0331980000
C          C       0.75061   0.94650   0.24940  -0.0331170000
C          C       0.24940   0.05351   0.75061  -0.0329570000
C          C       0.24940   0.05351   0.24940  -0.0331140000
C          C       0.75061   0.94650   0.75061  -0.0331830000
C          C       0.24940   0.75061   0.94650  -0.0325780000
C          C       0.75061   0.24940   0.05351  -0.0328300000
C          C       0.24940   0.24940   0.05351  -0.0331010000
C          C       0.75061   0.75061   0.94650  -0.0326290000
C          C       0.75061   0.24940   0.94650  -0.0328470000
C          C       0.24940   0.75061   0.05351  -0.0328870000
C          C       0.75061   0.75061   0.05351  -0.0329210000
C          C       0.24940   0.24940   0.94650  -0.0326370000
C          C       0.94650   0.24940   0.75061  -0.0327960000
C          C       0.05351   0.75061   0.24940  -0.0328620000
C          C       0.05351   0.24940   0.24939  -0.0329060000
C          C       0.94650   0.75061   0.75061  -0.0331800000
C          C       0.94650   0.75061   0.24940  -0.0328210000
C          C       0.05351   0.24940   0.75061  -0.0326970000
C          C       0.05351   0.75061   0.75061  -0.0325710000
C          C       0.94650   0.24940   0.24940  -0.0328580000
C          C       0.28274   0.47330   0.21696  -0.0982110000
C          C       0.71726   0.52671   0.78304  -0.0987040000
C          C       0.71727   0.52671   0.21696  -0.0985880000
C          C       0.28275   0.47330   0.78305  -0.0982520000
C          C       0.71727   0.47330   0.78305  -0.0982670000
C          C       0.28275   0.52671   0.21696  -0.0987120000
C          C       0.28275   0.52671   0.78304  -0.0986060000
C          C       0.71726   0.47330   0.21696  -0.0980960000
C          C       0.21696   0.28274   0.47330  -0.0984040000
C          C       0.78305   0.71726   0.52671  -0.0983570000
C          C       0.21696   0.71726   0.52671  -0.0984420000
C          C       0.78305   0.28275   0.47330  -0.0984940000
C          C       0.78305   0.71726   0.47330  -0.0985120000
C          C       0.21697   0.28275   0.52671  -0.0983620000
C          C       0.78305   0.28275   0.52671  -0.0983270000
C          C       0.21697   0.71726   0.47330  -0.0984990000
C          C       0.47330   0.21696   0.28274  -0.0985380000
C          C       0.52671   0.78305   0.71726  -0.0979800000
C          C       0.52671   0.21696   0.71726  -0.0985640000
C          C       0.47330   0.78305   0.28274  -0.0981170000
C          C       0.47330   0.78304   0.71726  -0.0981490000
C          C       0.52671   0.21696   0.28275  -0.0983820000
C          C       0.52671   0.78304   0.28275  -0.0983910000
C          C       0.47330   0.21697   0.71726  -0.0982990000
C          C       0.47330   0.28275   0.78304  -0.0983630000
C          C       0.52671   0.71726   0.21696  -0.0984170000
C          C       0.52671   0.71727   0.78305  -0.0986200000
C          C       0.47330   0.28274   0.21696  -0.0983780000
C          C       0.47330   0.71726   0.21696  -0.0983570000
C          C       0.52671   0.28275   0.78305  -0.0984110000
C          C       0.52671   0.28275   0.21696  -0.0983960000
C          C       0.47330   0.71726   0.78304  -0.0982440000
C          C       0.28275   0.21696   0.52671  -0.0981900000
C          C       0.71726   0.78305   0.47330  -0.0984520000
C          C       0.71726   0.21696   0.47330  -0.0983400000
C          C       0.28275   0.78305   0.52671  -0.0980240000
C          C       0.71726   0.78305   0.52671  -0.0981580000
C          C       0.28274   0.21696   0.47330  -0.0986050000
C          C       0.28275   0.78305   0.47330  -0.0984800000
C          C       0.71726   0.21696   0.52671  -0.0985290000
C          C       0.21696   0.47330   0.71726  -0.0982530000
C          C       0.78305   0.52671   0.28274  -0.0986200000
C          C       0.21697   0.52671   0.28275  -0.0985060000
C          C       0.78305   0.47330   0.71726  -0.0981320000
C          C       0.78305   0.47330   0.28275  -0.0981750000
C          C       0.21697   0.52671   0.71726  -0.0986890000
C          C       0.78305   0.52671   0.71726  -0.0985200000
C          C       0.21696   0.47330   0.28274  -0.0983950000
C          C       0.28237   0.97335   0.71765  -0.0949820000
C          C       0.71764   0.02666   0.28237  -0.0951720000
C          C       0.71765   0.02666   0.71764  -0.0951220000
C          C       0.28236   0.97335   0.28237  -0.0951750000
C          C       0.71764   0.97335   0.28236  -0.0951730000
C          C       0.28236   0.02666   0.71764  -0.0950500000
C          C       0.28237   0.02666   0.28236  -0.0951860000
C          C       0.71764   0.97335   0.71764  -0.0952410000
C          C       0.21643   0.78359   0.97335  -0.0982590000
C          C       0.78358   0.21643   0.02665  -0.0982710000
C          C       0.21643   0.21643   0.02665  -0.0979890000
C          C       0.78359   0.78358   0.97335  -0.0981670000
C          C       0.78358   0.21643   0.97335  -0.0983380000
C          C       0.21642   0.78358   0.02665  -0.0981260000
C          C       0.78358   0.78358   0.02665  -0.0981110000
C          C       0.21643   0.21643   0.97335  -0.0986840000
C          C       0.28236   0.71764   0.02666  -0.0956000000
C          C       0.71765   0.28237   0.97335  -0.0953030000
C          C       0.71765   0.71764   0.97335  -0.0963390000
C          C       0.28237   0.28236   0.02666  -0.0955550000
C          C       0.71764   0.28236   0.02666  -0.0955470000
C          C       0.28237   0.71765   0.97335  -0.0961380000
C          C       0.28237   0.28237   0.97335  -0.0953130000
C          C       0.71764   0.71764   0.02666  -0.0954650000
C          C       0.21643   0.97335   0.21643  -0.0977930000
C          C       0.78359   0.02666   0.78358  -0.0978040000
C          C       0.21643   0.02666   0.78358  -0.0978960000
C          C       0.78358   0.97335   0.21642  -0.0978360000
C          C       0.78358   0.97335   0.78358  -0.0977970000
C          C       0.21643   0.02666   0.21642  -0.0976490000
C          C       0.78358   0.02666   0.21643  -0.0977660000
C          C       0.21643   0.97335   0.78358  -0.0980820000
C          C       0.97336   0.21643   0.78358  -0.0984730000
C          C       0.02666   0.78358   0.21643  -0.0982010000
C          C       0.02666   0.21642   0.21643  -0.0983100000
C          C       0.97336   0.78358   0.78358  -0.0980980000
C          C       0.97335   0.78358   0.21642  -0.0981370000
C          C       0.02666   0.21643   0.78358  -0.0984880000
C          C       0.02666   0.78358   0.78358  -0.0982810000
C          C       0.97335   0.21643   0.21642  -0.0982310000
C          C       0.97335   0.28237   0.28236  -0.0954630000
C          C       0.02666   0.71765   0.71764  -0.0960260000
C          C       0.02666   0.71764   0.28237  -0.0955470000
C          C       0.97335   0.28237   0.71765  -0.0954150000
C          C       0.97335   0.71764   0.71764  -0.0980980000
C          C       0.02666   0.28236   0.28237  -0.0954820000
C          C       0.02666   0.28236   0.71764  -0.0953340000
C          C       0.97335   0.71764   0.28236  -0.0957200000
H          H       0.30807   0.45191   0.19171   0.1258460000
H          H       0.69195   0.54810   0.80830   0.1259330000
H          H       0.69194   0.54809   0.19171   0.1261200000
H          H       0.30807   0.45191   0.80829   0.1256700000
H          H       0.69195   0.45191   0.80830   0.1256130000
H          H       0.30806   0.54810   0.19171   0.1260870000
H          H       0.30807   0.54810   0.80830   0.1260790000
H          H       0.69194   0.45191   0.19171   0.1258300000
H          H       0.19171   0.30807   0.45191   0.1259780000
H          H       0.80830   0.69194   0.54809   0.1256080000
H          H       0.19171   0.69194   0.54810   0.1255890000
H          H       0.80830   0.30806   0.45191   0.1260180000
H          H       0.80830   0.69194   0.45191   0.1257790000
H          H       0.19171   0.30807   0.54809   0.1259140000
H          H       0.80830   0.30807   0.54809   0.1259330000
H          H       0.19171   0.69194   0.45191   0.1256870000
H          H       0.45191   0.19171   0.30807   0.1257840000
H          H       0.54810   0.80830   0.69194   0.1261190000
H          H       0.54810   0.19172   0.69194   0.1259250000
H          H       0.45191   0.80830   0.30807   0.1259250000
H          H       0.45192   0.80830   0.69194   0.1260890000
H          H       0.54810   0.19171   0.30806   0.1257180000
H          H       0.54810   0.80830   0.30806   0.1259560000
H          H       0.45192   0.19171   0.69194   0.1257660000
H          H       0.45191   0.30807   0.80829   0.1258630000
H          H       0.54810   0.69194   0.19171   0.1257250000
H          H       0.54810   0.69194   0.80830   0.1257350000
H          H       0.45191   0.30806   0.19171   0.1260070000
H          H       0.45191   0.69194   0.19171   0.1257940000
H          H       0.54810   0.30807   0.80830   0.1259760000
H          H       0.54810   0.30806   0.19171   0.1259510000
H          H       0.45191   0.69195   0.80830   0.1254450000
H          H       0.30807   0.19171   0.54810   0.1257010000
H          H       0.69194   0.80830   0.45191   0.1261330000
H          H       0.69194   0.19171   0.45191   0.1257960000
H          H       0.30807   0.80830   0.54809   0.1260440000
H          H       0.69195   0.80830   0.54809   0.1259250000
H          H       0.30807   0.19171   0.45191   0.1259220000
H          H       0.30807   0.80830   0.45191   0.1261950000
H          H       0.69194   0.19171   0.54809   0.1257170000
H          H       0.19171   0.45192   0.69194   0.1256610000
H          H       0.80830   0.54809   0.30807   0.1259750000
H          H       0.19171   0.54809   0.30806   0.1259430000
H          H       0.80830   0.45191   0.69194   0.1258080000
H          H       0.80830   0.45191   0.30806   0.1256840000
H          H       0.19172   0.54810   0.69194   0.1261020000
H          H       0.80830   0.54810   0.69194   0.1261310000
H          H       0.19171   0.45191   0.30806   0.1257540000
H          H       0.30757   0.95179   0.69244   0.1234790000
H          H       0.69244   0.04822   0.30757   0.1235460000
H          H       0.69244   0.04822   0.69244   0.1235610000
H          H       0.30757   0.95179   0.30757   0.1234060000
H          H       0.69244   0.95179   0.30757   0.1233690000
H          H       0.30757   0.04822   0.69244   0.1236650000
H          H       0.30757   0.04822   0.30757   0.1235040000
H          H       0.69245   0.95179   0.69244   0.1234210000
H          H       0.19123   0.80878   0.95180   0.1266830000
H          H       0.80878   0.19122   0.04821   0.1262680000
H          H       0.19122   0.19122   0.04821   0.1264100000
H          H       0.80879   0.80878   0.95180   0.1269440000
H          H       0.80879   0.19123   0.95180   0.1264210000
H          H       0.19123   0.80878   0.04821   0.1266080000
H          H       0.80878   0.80878   0.04821   0.1265090000
H          H       0.19123   0.19123   0.95180   0.1263320000
H          H       0.30757   0.69244   0.04821   0.1234610000
H          H       0.69244   0.30757   0.95179   0.1236650000
H          H       0.69244   0.69244   0.95179   0.1236170000
H          H       0.30757   0.30757   0.04821   0.1236380000
H          H       0.69244   0.30757   0.04821   0.1237070000
H          H       0.30757   0.69244   0.95179   0.1238430000
H          H       0.30757   0.30757   0.95179   0.1238100000
H          H       0.69244   0.69244   0.04822   0.1234790000
H          H       0.19123   0.95180   0.19122   0.1261450000
H          H       0.80879   0.04821   0.80878   0.1263960000
H          H       0.19123   0.04821   0.80878   0.1262880000
H          H       0.80878   0.95180   0.19122   0.1262040000
H          H       0.80879   0.95180   0.80878   0.1260760000
H          H       0.19123   0.04821   0.19122   0.1264110000
H          H       0.80878   0.04821   0.19122   0.1263760000
H          H       0.19123   0.95180   0.80878   0.1259400000
H          H       0.95180   0.19123   0.80878   0.1262380000
H          H       0.04821   0.80878   0.19122   0.1267490000
H          H       0.04821   0.19123   0.19122   0.1264790000
H          H       0.95180   0.80878   0.80878   0.1266100000
H          H       0.95180   0.80878   0.19122   0.1267020000
H          H       0.04821   0.19123   0.80878   0.1263590000
H          H       0.04821   0.80878   0.80878   0.1267700000
H          H       0.95180   0.19122   0.19122   0.1264870000
H          H       0.95179   0.30757   0.30757   0.1236080000
H          H       0.04822   0.69244   0.69244   0.1235970000
H          H       0.04822   0.69244   0.30757   0.1234140000
H          H       0.95180   0.30757   0.69244   0.1237440000
H          H       0.95180   0.69244   0.69244   0.1264650000
H          H       0.04822   0.30757   0.30757   0.1236410000
H          H       0.04822   0.30757   0.69244   0.1237720000
H          H       0.95179   0.69244   0.30757   0.1234220000
