data_crystal

_cell_length_a    25.90750
_cell_length_b    25.90750
_cell_length_c    6.91663
_cell_angle_alpha 90.00000
_cell_angle_beta  90.00000
_cell_angle_gamma 120.00000

_symmetry_space_group_name_Hall 'P 1'
_symmetry_space_group_name_H-M  'P 1'

loop_
_symmetry_equiv_pos_as_xyz
 'x,y,z'

loop_
_atom_site_label
_atom_site_type_symbol
_atom_site_fract_x
_atom_site_fract_y
_atom_site_fract_z
Mg         Mg      0.04790   0.36200   0.97370
Mg         Mg      0.95210   0.63800   0.02630
Mg         Mg      0.63800   0.68590   0.97370
Mg         Mg      0.36200   0.31410   0.02630
Mg         Mg      0.31410   0.95210   0.97370
Mg         Mg      0.68590   0.04790   0.02630
Mg         Mg      0.71457   0.69533   0.30703
Mg         Mg      0.61877   0.97133   0.35963
Mg         Mg      0.30467   0.01923   0.30703
Mg         Mg      0.02867   0.64743   0.35963
Mg         Mg      0.98077   0.28543   0.30703
Mg         Mg      0.35257   0.38123   0.35963
Mg         Mg      0.38123   0.02867   0.64037
Mg         Mg      0.28543   0.30467   0.69297
Mg         Mg      0.97133   0.35257   0.64037
Mg         Mg      0.69533   0.98077   0.69297
Mg         Mg      0.64743   0.61877   0.64037
Mg         Mg      0.01923   0.71457   0.69297
O          O       0.02160   0.41290   0.84650
O          O       0.97840   0.58710   0.15350
O          O       0.58710   0.60870   0.84650
O          O       0.41290   0.39130   0.15350
O          O       0.39130   0.97840   0.84650
O          O       0.60870   0.02160   0.15350
O          O       0.68827   0.74623   0.17983
O          O       0.64507   0.92043   0.48683
O          O       0.25377   0.94203   0.17983
O          O       0.07957   0.72463   0.48683
O          O       0.05797   0.31173   0.17983
O          O       0.27537   0.35493   0.48683
O          O       0.35493   0.07957   0.51317
O          O       0.31173   0.25377   0.82017
O          O       0.92043   0.27537   0.51317
O          O       0.74623   0.05797   0.82017
O          O       0.72463   0.64507   0.51317
O          O       0.94203   0.68827   0.82017
O          O       0.99030   0.36320   0.18680
O          O       0.00970   0.63680   0.81320
O          O       0.63680   0.62710   0.18680
O          O       0.36320   0.37290   0.81320
O          O       0.37290   0.00970   0.18680
O          O       0.62710   0.99030   0.81320
O          O       0.65697   0.69653   0.52013
O          O       0.67637   0.97013   0.14653
O          O       0.30347   0.96043   0.52013
O          O       0.02987   0.70623   0.14653
O          O       0.03957   0.34303   0.52013
O          O       0.29377   0.32363   0.14653
O          O       0.32363   0.02987   0.85347
O          O       0.34303   0.30347   0.47987
O          O       0.97013   0.29377   0.85347
O          O       0.69653   0.03957   0.47987
O          O       0.70623   0.67637   0.85347
O          O       0.96043   0.65697   0.47987
C          C       0.01080   0.45510   0.92120
C          C       0.98920   0.54490   0.07880
C          C       0.54490   0.55570   0.92120
C          C       0.45510   0.44430   0.07880
C          C       0.44430   0.98920   0.92120
C          C       0.55570   0.01080   0.07880
C          C       0.67747   0.78843   0.25453
C          C       0.65587   0.87823   0.41213
C          C       0.21157   0.88903   0.25453
C          C       0.12177   0.77763   0.41213
C          C       0.11097   0.32253   0.25453
C          C       0.22237   0.34413   0.41213
C          C       0.34413   0.12177   0.58787
C          C       0.32253   0.21157   0.74547
C          C       0.87823   0.22237   0.58787
C          C       0.78843   0.11097   0.74547
C          C       0.77763   0.65587   0.58787
C          C       0.88903   0.67747   0.74547
C          C       0.98020   0.40020   0.25730
C          C       0.01980   0.59980   0.74270
C          C       0.59980   0.58000   0.25730
C          C       0.40020   0.42000   0.74270
C          C       0.42000   0.01980   0.25730
C          C       0.58000   0.98020   0.74270
C          C       0.64687   0.73353   0.59063
C          C       0.68647   0.93313   0.07603
C          C       0.26647   0.91333   0.59063
C          C       0.06687   0.75333   0.07603
C          C       0.08667   0.35313   0.59063
C          C       0.24667   0.31353   0.07603
C          C       0.31353   0.06687   0.92397
C          C       0.35313   0.26647   0.40937
C          C       0.93313   0.24667   0.92397
C          C       0.73353   0.08667   0.40937
C          C       0.75333   0.68647   0.92397
C          C       0.91333   0.64687   0.40937
C          C       0.01980   0.49900   0.79110
C          C       0.98020   0.50100   0.20890
C          C       0.50100   0.52080   0.79110
C          C       0.49900   0.47920   0.20890
C          C       0.47920   0.98020   0.79110
C          C       0.52080   0.01980   0.20890
C          C       0.68647   0.83233   0.12443
C          C       0.64687   0.83433   0.54223
C          C       0.16767   0.85413   0.12443
C          C       0.16567   0.81253   0.54223
C          C       0.14587   0.31353   0.12443
C          C       0.18747   0.35313   0.54223
C          C       0.35313   0.16567   0.45777
C          C       0.31353   0.16767   0.87557
C          C       0.83433   0.18747   0.45777
C          C       0.83233   0.14587   0.87557
C          C       0.81253   0.64687   0.45777
C          C       0.85413   0.68647   0.87557
C          C       0.99420   0.45590   0.12500
C          C       0.00580   0.54410   0.87500
C          C       0.54410   0.53830   0.12500
C          C       0.45590   0.46170   0.87500
C          C       0.46170   0.00580   0.12500
C          C       0.53830   0.99420   0.87500
C          C       0.66087   0.78923   0.45833
C          C       0.67247   0.87743   0.20833
C          C       0.21077   0.87163   0.45833
C          C       0.12257   0.79503   0.20833
C          C       0.12837   0.33913   0.45833
C          C       0.20497   0.32753   0.20833
C          C       0.32753   0.12257   0.79167
C          C       0.33913   0.21077   0.54167
C          C       0.87743   0.20497   0.79167
C          C       0.78923   0.12837   0.54167
C          C       0.79503   0.67247   0.79167
C          C       0.87163   0.66087   0.54167
O          O       0.96990   0.40700   0.42250
O          O       0.03010   0.59300   0.57750
O          O       0.59300   0.56290   0.42250
O          O       0.40700   0.43710   0.57750
O          O       0.43710   0.03010   0.42250
O          O       0.56290   0.96990   0.57750
O          O       0.63657   0.74033   0.75583
O          O       0.69677   0.92633   0.91083
O          O       0.25967   0.89623   0.75583
O          O       0.07367   0.77043   0.91083
O          O       0.10377   0.36343   0.75583
O          O       0.22957   0.30323   0.91083
O          O       0.30323   0.07367   0.08917
O          O       0.36343   0.25967   0.24417
O          O       0.92633   0.22957   0.08917
O          O       0.74033   0.10377   0.24417
O          O       0.77043   0.69677   0.08917
O          O       0.89623   0.63657   0.24417
H          H       0.02920   0.49550   0.63800
H          H       0.97080   0.50450   0.36200
H          H       0.50450   0.53370   0.63800
H          H       0.49550   0.46630   0.36200
H          H       0.46630   0.97080   0.63800
H          H       0.53370   0.02920   0.36200
H          H       0.69587   0.82883   0.97133
H          H       0.63747   0.83783   0.69533
H          H       0.17117   0.86703   0.97133
H          H       0.16217   0.79963   0.69533
H          H       0.13297   0.30413   0.97133
H          H       0.20037   0.36253   0.69533
H          H       0.36253   0.16217   0.30467
H          H       0.30413   0.17117   0.02867
H          H       0.83783   0.20037   0.30467
H          H       0.82883   0.13297   0.02867
H          H       0.79963   0.63747   0.30467
H          H       0.86703   0.69587   0.02867
