data_crystal

_cell_length_a 9.61960
_cell_length_b 9.61960
_cell_length_c 12.81700
_cell_angle_alpha 90.00000
_cell_angle_beta  90.00000
_cell_angle_gamma 92.04700

_symmetry_space_group_name_	'P 1'
_symmetry_space_group_name_H-M	'P 1'

loop_
_symmetry_equiv_pos_as_xyz
  x,y,z

loop_
_atom_site_label
_atom_site_type_symbol
_atom_site_fract_x
_atom_site_fract_y
_atom_site_fract_z
_atom_site_charge
Li	Li	0.11770 0.03950 0.90340 0.55800
Li	Li	0.88230 0.96050 0.40340 0.55800
Li	Li	0.96050 0.88230 0.59660 0.55700
Li	Li	0.03950 0.11770 0.09660 0.55700
Li	Li	0.92900 0.07100 0.75000 0.55500
Li	Li	0.07100 0.92900 0.25000 0.55500
Li	Li	0.73060 0.26940 0.75000 0.54300
Li	Li	0.26940 0.73060 0.25000 0.54300
H 	H 	0.37140 0.00320 0.36090 0.08300
H 	H 	0.19520 0.01980 0.48200 0.01300
H 	H 	0.48000 0.06740 0.70960 -0.00500
H 	H 	0.59850 0.00990 0.41370 0.00300
H 	H 	0.62860 0.99680 0.86090 0.08200
H 	H 	0.80480 0.98020 0.98200 0.01500
H 	H 	0.52000 0.93260 0.20960 -0.00400
H 	H 	0.40150 0.99010 0.91370 0.00300
H 	H 	0.99680 0.62860 0.13910 0.08200
H 	H 	0.98020 0.80480 0.01800 0.01500
H 	H 	0.93260 0.52000 0.79040 -0.00400
H 	H 	0.99010 0.40150 0.08630 0.00300
H 	H 	0.00320 0.37140 0.63910 0.08300
H 	H 	0.01980 0.19520 0.51800 0.01300
H 	H 	0.06740 0.48000 0.29040 -0.00500
H 	H 	0.00990 0.59850 0.58630 0.00300
C 	C 	0.39280 0.01400 0.43121 -0.16500
C 	C 	0.28760 0.02456 0.50350 0.07500
C 	C 	0.32000 0.04246 0.60950 -0.16200
C 	C 	0.45776 0.05204 0.63983 0.09500
C 	C 	0.56358 0.03888 0.56688 -0.18800
C 	C 	0.52839 0.01939 0.46283 0.08900
C 	C 	0.20313 0.05053 0.68771 0.38800
C 	C 	0.71338 0.03830 0.59995 0.40000
C 	C 	0.60720 0.98600 0.93121 -0.16100
C 	C 	0.71240 0.97544 0.00350 0.06900
C 	C 	0.68000 0.95754 0.10950 -0.16000
C 	C 	0.54224 0.94796 0.13983 0.09500
C 	C 	0.43642 0.96112 0.06688 -0.18900
C 	C 	0.47161 0.98061 0.96283 0.09000
C 	C 	0.79687 0.94947 0.18771 0.38800
C 	C 	0.28662 0.96170 0.09995 0.39800
C 	C 	0.98600 0.60720 0.06879 -0.16100
C 	C 	0.97544 0.71240 0.99650 0.06900
C 	C 	0.95754 0.68000 0.89050 -0.16000
C 	C 	0.94796 0.54224 0.86017 0.09500
C 	C 	0.96112 0.43642 0.93312 -0.18900
C 	C 	0.98061 0.47161 0.03717 0.09000
C 	C 	0.94947 0.79687 0.81229 0.38800
C 	C 	0.96170 0.28662 0.90005 0.39800
C 	C 	0.01400 0.39280 0.56879 -0.16500
C 	C 	0.02456 0.28760 0.49650 0.07500
C 	C 	0.04246 0.32000 0.39050 -0.16200
C 	C 	0.05204 0.45776 0.36017 0.09500
C 	C 	0.03888 0.56358 0.43312 -0.18800
C 	C 	0.01939 0.52839 0.53717 0.08900
C 	C 	0.05053 0.20313 0.31229 0.38800
C 	C 	0.03830 0.71338 0.40005 0.40000
O 	O 	0.23312 0.07566 0.78084 -0.37700
O 	O 	0.08218 0.03312 0.65319 -0.44000
O 	O 	0.74469 0.08381 0.68899 -0.47700
O 	O 	0.80009 0.98569 0.53895 -0.44000
O 	O 	0.76688 0.92434 0.28084 -0.37700
O 	O 	0.91782 0.96688 0.15319 -0.44000
O 	O 	0.25531 0.91619 0.18899 -0.47600
O 	O 	0.19991 0.01431 0.03895 -0.43800
O 	O 	0.92434 0.76688 0.71916 -0.37700
O 	O 	0.96688 0.91782 0.84681 -0.44000
O 	O 	0.91619 0.25531 0.81101 -0.47600
O 	O 	0.01431 0.19991 0.96105 -0.43800
O 	O 	0.07566 0.23312 0.21916 -0.37700
O 	O 	0.03312 0.08218 0.34681 -0.44000
O 	O 	0.08381 0.74469 0.31101 -0.47700
O 	O 	0.98569 0.80009 0.46105 -0.44000
