data_crystal

_audit_creation_method 'AiiDA-DDEC plugin'

_cell_length_a        19.80617
_cell_length_b        20.14339
_cell_length_c        19.89229

_cell_angle_alpha     108.99497
_cell_angle_beta     110.52592
_cell_angle_gamma     109.53372

_symmetry_space_group_name_Hall 'P 1'
_symmetry_space_group_name_H-M  'P 1'

loop_
_symmetry_equiv_pos_as_xyz
 'x,y,z'

loop_
_atom_site_label
_atom_site_type_symbol
_atom_site_fract_x
_atom_site_fract_y
_atom_site_fract_z
_atom_site_charge
Zn         Zn      0.88939   0.40373   0.44497   0.92344
Zn         Zn      0.60882   0.56174   0.01288   0.92101
Zn         Zn      0.58218   0.10763   0.54524   0.94086
Zn         Zn      0.95996   0.94979   0.06454   0.48874
Zn         Zn      0.45130   0.61943   0.97678   0.19632
Zn         Zn      0.69352   0.95275   0.56235   0.06019
Zn         Zn      0.04392   0.52214   0.66665   0.18290
Zn         Zn      0.89220   0.94256   0.87570   0.96337
Zn         Zn      0.45760   0.06055   0.60240   0.28572
Zn         Zn      0.03090   0.43745   0.42086   0.61225
Zn         Zn      0.46823   0.39362   0.90900   0.62898
Zn         Zn      0.02057   0.10484   0.05452   0.95253
Zn         Zn      0.11796   0.60252   0.55360   0.92201
Zn         Zn      0.38332   0.44059   0.98908   0.91400
Zn         Zn      0.45874   0.90673   0.51249   0.95745
Zn         Zn      0.03998   0.09916   0.84457   0.05142
Zn         Zn      0.53244   0.37708   0.02728   0.17413
Zn         Zn      0.39410   0.00368   0.45607   0.38889
Zn         Zn      0.95581   0.48097   0.33609   0.19057
Zn         Zn      0.11089   0.04011   0.15455   0.24752
Zn         Zn      0.52172   0.94666   0.39499   0.95858
Zn         Zn      0.97743   0.57014   0.58028   0.61644
Zn         Zn      0.52574   0.60661   0.09494   0.61387
Zn         Zn      0.05076   0.94289   0.96578   0.90729
H          H       0.72874   0.14004   0.23233   0.11787
H          H       0.66710   0.01599   0.09756   0.11464
H          H       0.87121   0.13994   0.07054   0.11297
H          H       0.93778   0.25933   0.20961   0.11476
H          H       0.76034   0.50774   0.89671   0.11955
H          H       0.82377   0.43687   0.83583   0.11345
H          H       0.65426   0.21430   0.80572   0.11471
H          H       0.58486   0.28240   0.85702   0.11109
H          H       0.61403   0.35768   0.61029   0.11680
H          H       0.59842   0.47908   0.66006   0.11457
H          H       0.41565   0.35292   0.70977   0.11500
H          H       0.43908   0.23641   0.67001   0.11357
H          H       0.88733   0.01688   0.23092   0.11588
H          H       0.89893   0.07611   0.36780   0.11349
H          H       0.10565   0.30356   0.44643   0.10851
H          H       0.09297   0.24420   0.30893   0.12124
H          H       0.51290   0.72543   0.86611   0.10801
H          H       0.56960   0.86107   0.87700   0.11387
H          H       0.79822   0.94844   0.09634   0.11625
H          H       0.74204   0.81193   0.08443   0.12271
H          H       0.84156   0.13211   0.60251   0.10225
H          H       0.97589   0.18897   0.60617   0.11299
H          H       0.85169   0.19231   0.38250   0.10527
H          H       0.71617   0.12660   0.37333   0.11992
H          H       0.98071   0.34799   0.70317   0.10692
H          H       0.92620   0.30663   0.78686   0.11394
H          H       0.70671   0.31521   0.65824   0.10442
H          H       0.75880   0.35133   0.57125   0.12290
H          H       0.65955   0.75465   0.76093   0.11570
H          H       0.53087   0.61885   0.68314   0.11302
H          H       0.64776   0.56146   0.86574   0.10737
H          H       0.77407   0.69821   0.94492   0.12273
H          H       0.57699   0.08882   0.84815   0.11479
H          H       0.65429   0.08685   0.97657   0.11040
H          H       0.70598   0.91512   0.84144   0.11477
H          H       0.62803   0.91683   0.71316   0.11541
H          H       0.25273   0.40705   0.48253   0.11669
H          H       0.38262   0.40518   0.55628   0.11203
H          H       0.43966   0.58660   0.78755   0.11496
H          H       0.31109   0.59018   0.71327   0.11719
H          H       0.24832   0.23692   0.65320   0.11596
H          H       0.11884   0.18223   0.52065   0.11340
H          H       0.06764   0.35893   0.64734   0.11552
H          H       0.19535   0.41150   0.78082   0.11552
H          H       0.92128   0.24882   0.99475   0.12020
H          H       0.86679   0.32388   0.93455   0.11508
H          H       0.75431   0.12540   0.68897   0.09628
H          H       0.80514   0.04934   0.74915   0.09610
H          H       0.27712   0.87284   0.76592   0.11830
H          H       0.33679   0.99373   0.90232   0.11414
H          H       0.13782   0.85761   0.92872   0.09977
H          H       0.07291   0.74207   0.78933   0.11201
H          H       0.22656   0.49702   0.09558   0.11943
H          H       0.16586   0.57465   0.15276   0.11242
H          H       0.37526   0.79861   0.22960   0.11514
H          H       0.44171   0.72235   0.18353   0.11237
H          H       0.39961   0.65904   0.39384   0.11672
H          H       0.40136   0.52960   0.34181   0.11275
H          H       0.60036   0.64251   0.30358   0.11088
H          H       0.59509   0.76959   0.35078   0.11526
H          H       0.11601   0.96581   0.77667   0.10609
H          H       0.12008   0.91310   0.64764   0.11296
H          H       0.87427   0.70662   0.52697   0.10537
H          H       0.86614   0.76506   0.65249   0.11836
H          H       0.48062   0.27756   0.12613   0.10659
H          H       0.43254   0.13932   0.11016   0.11583
H          H       0.18547   0.05792   0.92053   0.10614
H          H       0.23453   0.19574   0.93530   0.10340
H          H       0.14863   0.87406   0.38601   0.11512
H          H       0.02342   0.82971   0.40010   0.11230
H          H       0.15100   0.78962   0.59428   0.10524
H          H       0.27461   0.83300   0.57917   0.12597
H          H       0.01573   0.64525   0.28556   0.10759
H          H       0.07164   0.69219   0.20503   0.11353
H          H       0.30490   0.71390   0.35358   0.11010
H          H       0.24939   0.66854   0.43465   0.12539
H          H       0.36262   0.26069   0.28781   0.11456
H          H       0.48857   0.39133   0.34198   0.11077
H          H       0.34336   0.43033   0.15628   0.11355
H          H       0.21804   0.29985   0.10227   0.11968
H          H       0.38312   0.89204   0.15641   0.11540
H          H       0.33133   0.90349   0.02933   0.11184
H          H       0.30756   0.10384   0.15957   0.10830
H          H       0.35554   0.08953   0.28424   0.11706
H          H       0.75284   0.59281   0.52138   0.11690
H          H       0.61923   0.59021   0.44966   0.11517
H          H       0.56677   0.41960   0.21536   0.11371
H          H       0.69987   0.42103   0.28727   0.11562
H          H       0.75642   0.76998   0.34531   0.11801
H          H       0.88823   0.82516   0.47523   0.11500
H          H       0.92965   0.63969   0.34715   0.11691
H          H       0.79909   0.58640   0.21603   0.11613
H          H       0.08706   0.72779   0.97870   0.11880
H          H       0.14685   0.67036   0.06109   0.11187
H          H       0.22288   0.87646   0.28538   0.12693
H          H       0.17376   0.93913   0.20461   0.09864
H          H       0.78872  -0.00128   0.99282   0.10452
H          H       0.70740   0.21750   0.71184   0.08313
H          H       0.49561   0.49773   0.78214   0.10479
H          H       0.00853   0.29498   0.49977   0.11017
H          H       0.21021   0.99602   0.00424   0.09024
H          H       0.29157   0.80007   0.28721   0.10436
H          H       0.49616   0.49139   0.22044   0.11040
H          H       0.99411   0.70721   0.49513   0.11121
C          C       0.88076   0.27974   0.31318   0.55907
C          C       0.83769   0.20725   0.22991  -0.04914
C          C       0.76011   0.13928   0.19705  -0.09044
C          C       0.72519   0.07017   0.12100  -0.14728
C          C       0.76525   0.06934   0.07513   0.10723
C          C       0.84031   0.13948   0.10631  -0.13850
C          C       0.87742   0.20681   0.18368  -0.08621
C          C       0.61918   0.43485   0.90178   0.57272
C          C       0.66736   0.39892   0.87865  -0.04608
C          C       0.73720   0.44342   0.87627  -0.09219
C          C       0.77330   0.40371   0.84306  -0.14955
C          C       0.74238   0.32054   0.81547   0.08789
C          C       0.67785   0.27869   0.82601  -0.12214
C          C       0.63895   0.31655   0.85487  -0.08598
C          C       0.54617   0.22201   0.62327   0.55447
C          C       0.52857   0.28964   0.63824  -0.05501
C          C       0.57100   0.35711   0.63251  -0.09126
C          C       0.56121   0.42476   0.65937  -0.14903
C          C       0.50646   0.42468   0.68893   0.09929
C          C       0.45904   0.35416   0.68779  -0.13042
C          C       0.47151   0.28842   0.66508  -0.07500
C          C       0.97673   0.09449   0.17640   0.55268
C          C       0.98826   0.12729   0.26042  -0.06332
C          C       0.93525   0.07953   0.27841  -0.08815
C          C       0.94240   0.11285   0.35572  -0.15074
C          C       0.00233   0.19438   0.41640   0.09889
C          C       0.05866   0.24021   0.39982  -0.12553
C          C       0.05160   0.20756   0.32286  -0.07883
C          C       0.59281   0.67801   0.96575   0.55748
C          C       0.62421   0.75970   0.97410  -0.07002
C          C       0.57521   0.77459   0.91689  -0.08895
C          C       0.60713   0.85105   0.92331  -0.15000
C          C       0.68827   0.91396   0.98735   0.10780
C          C       0.73527   0.89967   0.04680  -0.14737
C          C       0.70441   0.82363   0.04006  -0.07824
C          C       0.68840   0.09129   0.48312   0.59693
C          C       0.77012   0.12550   0.48767  -0.04639
C          C       0.84376   0.14401   0.55350  -0.09607
C          C       0.91948   0.17653   0.55562  -0.14285
C          C       0.92385   0.19544   0.49489   0.10096
C          C       0.84953   0.17771   0.42995  -0.13615
C          C       0.77331   0.14122   0.42473  -0.09140
C          C       0.90332   0.37086   0.57810   0.55908
C          C       0.87253   0.35047   0.63074  -0.06643
C          C       0.92057   0.34052   0.69366  -0.08466
C          C       0.89006   0.31790   0.74096  -0.14481
C          C       0.81178   0.30667   0.72731   0.10416
C          C       0.76680   0.32247   0.66819  -0.14350
C          C       0.79552   0.34251   0.61926  -0.08045
C          C       0.79906   0.81941   0.90679   0.59539
C          C       0.72483   0.73567   0.85832  -0.06357
C          C       0.65633   0.71186   0.78342  -0.08359
C          C       0.58445   0.63532   0.73957  -0.15209
C          C       0.57976   0.58047   0.76904   0.10733
C          C       0.65005   0.60333   0.84206  -0.14960
C          C       0.72133   0.68003   0.88683  -0.07960
C          C       0.54892  -0.00010   0.69424   0.58140
C          C       0.59726   0.00251   0.77259  -0.06285
C          C       0.60522   0.05082   0.84715  -0.08910
C          C       0.64825   0.04933   0.91882  -0.14988
C          C       0.68449   0.00024   0.91732   0.10197
C          C       0.67738   0.95291   0.84267  -0.14663
C          C       0.63413   0.95370   0.77114  -0.07842
C          C       0.19830   0.50388   0.55194   0.58434
C          C       0.27383   0.49888   0.59321  -0.06265
C          C       0.29414   0.44651   0.54934  -0.08814
C          C       0.36729   0.44584   0.59095  -0.14848
C          C       0.42039   0.49656   0.67707   0.10559
C          C       0.39894   0.54816   0.72056  -0.15376
C          C       0.32732   0.54994   0.67959  -0.08690
C          C       0.30471   0.36094   0.80685   0.58690
C          C       0.23002   0.32785   0.72549  -0.06196
C          C       0.20842   0.26332   0.65178  -0.08480
C          C       0.13558   0.23258   0.57754  -0.14680
C          C       0.08424   0.26670   0.57536   0.10679
C          C       0.10715   0.33208   0.64931  -0.15575
C          C       0.17828   0.36172   0.72342  -0.08819
C          C       0.89645   0.09773   0.91013   0.58793
C          C       0.86645   0.14445   0.87583  -0.06023
C          C       0.88460   0.22241   0.92790  -0.07939
C          C       0.85454   0.26443   0.89395  -0.14493
C          C       0.80689   0.22962   0.80767   0.10520
C          C       0.79072   0.15241   0.75613  -0.15190
C          C       0.81937   0.10988   0.78941  -0.08645
C          C       0.12758   0.72797   0.68433   0.56150
C          C       0.17052   0.79989   0.76819  -0.04377
C          C       0.24643   0.87021   0.80167  -0.09002
C          C       0.28052   0.93774   0.87894  -0.14591
C          C       0.24152   0.93454   0.92554   0.10289
C          C       0.16847   0.86187   0.89327  -0.13583
C          C       0.13185   0.79627   0.81505  -0.08838
C          C       0.37890   0.56235   0.10775   0.56370
C          C       0.33833   0.60508   0.13707  -0.05296
C          C       0.25931   0.56315   0.12613  -0.08757
C          C       0.22492   0.60663   0.15693  -0.14788
C          C       0.26702   0.69187   0.19536   0.10251
C          C       0.34369   0.73272   0.20163  -0.14897
C          C       0.38039   0.69028   0.17504  -0.08472
C          C       0.49186   0.79803   0.39931   0.58734
C          C       0.49688   0.72260   0.37520  -0.06567
C          C       0.44350   0.65506   0.37408  -0.08259
C          C       0.44499   0.58260   0.34532  -0.15324
C          C       0.50077   0.57689   0.31887   0.10237
C          C       0.55676   0.64606   0.32403  -0.12515
C          C       0.55420   0.71754   0.35053  -0.08272
C          C       0.98653   0.90019   0.79918   0.58671
C          C       0.99050   0.86945   0.72280  -0.05702
C          C       0.06230   0.91005   0.72115  -0.08713
C          C       0.06477   0.87962   0.64855  -0.14836
C          C       0.99755   0.80584   0.57794   0.10737
C          C       0.92650   0.76462   0.58090  -0.12979
C          C       0.92176   0.79672   0.65119  -0.08335
C          C       0.39056   0.32645   0.03909   0.55136
C          C       0.36082   0.24510   0.03152  -0.06271
C          C       0.41646   0.22870   0.08028  -0.09113
C          C       0.38935   0.15109   0.07099  -0.14557
C          C       0.30590   0.08911   0.01380   0.10717
C          C       0.25064   0.10578   0.96446  -0.15400
C          C       0.27751   0.18263   0.97286  -0.07590
C          C       0.29123   0.87494   0.46772   0.55463
C          C       0.21938   0.85557   0.48100  -0.06111
C          C       0.14884   0.85637   0.43220  -0.08069
C          C       0.07877   0.83164   0.44051  -0.14812
C          C       0.07724   0.80539   0.49750   0.10689
C          C       0.15010   0.80930   0.54936  -0.14690
C          C       0.21998   0.83363   0.54130  -0.08049
C          C       0.09779   0.63098   0.41627   0.56024
C          C       0.12901   0.65400   0.36513  -0.07294
C          C       0.07870   0.65950   0.29941  -0.08512
C          C       0.11023   0.68595   0.25443  -0.15134
C          C       0.19222   0.70677   0.27424   0.11407
C          C       0.24110   0.69786   0.33799  -0.14486
C          C       0.21052   0.67251   0.38341  -0.07340
C          C       0.20463   0.19269   0.15589   0.58610
C          C       0.28179   0.27130   0.19117  -0.06427
C          C       0.35853   0.29809   0.25927  -0.08625
C          C       0.42918   0.37187   0.28991  -0.14954
C          C       0.42511   0.42047   0.25339   0.10651
C          C       0.34773   0.39373   0.18585  -0.14292
C          C       0.27731   0.32057   0.15519  -0.08111
C          C       0.39473   0.97705   0.30046   0.58932
C          C       0.37169   0.98937   0.22784  -0.06548
C          C       0.36689   0.93854   0.15651  -0.08300
C          C       0.33831   0.94551   0.08556  -0.15144
C          C       0.31557   0.00422   0.08539   0.10088
C          C       0.32521   0.05805   0.15884  -0.12831
C          C       0.35175   0.05023   0.22881  -0.09104
C          C       0.81138   0.50398   0.44878   0.58598
C          C       0.73439   0.50697   0.40860  -0.06173
C          C       0.71176   0.55501   0.45436  -0.08787
C          C       0.63676   0.55301   0.41408  -0.14953
C          C       0.58395   0.50392   0.32772   0.10961
C          C       0.60776   0.45693   0.28239  -0.15221
C          C       0.68159   0.45785   0.32204  -0.08557
C          C       0.69215   0.64047   0.19261   0.58563
C          C       0.76909   0.67428   0.27242  -0.06216
C          C       0.79461   0.74172   0.34587  -0.08737
C          C       0.86892   0.77272   0.41865  -0.14907
C          C       0.91781   0.73581   0.42019   0.10651
C          C       0.89161   0.66816   0.34630  -0.15562
C          C       0.81890   0.63824   0.27333  -0.08680
C          C       0.09903   0.87530   0.03848   0.53955
C          C       0.12747   0.83758   0.08625  -0.04638
C          C       0.11769   0.76043   0.04598  -0.08802
C          C       0.15035   0.72796   0.09232  -0.14646
C          C       0.18982   0.77004   0.17915   0.11007
C          C       0.19421   0.84463   0.21829  -0.14525
C          C       0.16594   0.87932   0.17298  -0.08562
C          C       0.73211   0.99580   0.99307  -0.11025
C          C       0.76821   0.26956   0.76636  -0.09452
C          C       0.50024   0.49927   0.72885  -0.10922
C          C       0.00514   0.23808   0.49684  -0.10899
C          C       0.26964   0.00606   0.00704  -0.10318
C          C       0.23486   0.74276   0.23405  -0.11264
C          C       0.50122   0.49828   0.27971  -0.11589
C          C       0.99745   0.76424   0.49856  -0.10964
O          O       0.83690   0.30071   0.34001  -0.52797
O          O       0.96080   0.31776   0.35354  -0.51325
O          O       0.65819   0.50966   0.95824  -0.52451
O          O       0.54000   0.38736   0.86253  -0.51621
O          O       0.57270   0.20464   0.57224  -0.54171
O          O       0.53573   0.18399   0.66196  -0.47953
O          O       0.92082   0.02002   0.12139  -0.51363
O          O       0.02518   0.14242   0.16292  -0.54301
O          O       0.51619   0.62208   0.91192  -0.49272
O          O       0.64355   0.66727   0.01671  -0.53758
O          O       0.68790   0.12454   0.55023  -0.54849
O          O       0.62423   0.03338   0.41278  -0.54964
O          O       0.98000   0.39368   0.59952  -0.48845
O          O       0.85287   0.36985   0.51537  -0.53421
O          O       0.79827   0.86354   0.87241  -0.56222
O          O       0.85706   0.84155   0.97840  -0.46612
O          O       0.51884   0.04759   0.69732  -0.44875
O          O       0.54138   0.94948   0.62906  -0.55736
O          O       0.14227   0.44924   0.47554  -0.48355
O          O       0.19413   0.56288   0.59609  -0.53167
O          O       0.35936   0.33943   0.80752  -0.48872
O          O       0.30981   0.40904   0.87127  -0.53355
O          O       0.94705   0.13409   0.98851  -0.54624
O          O       0.86932   0.02414   0.85747  -0.55159
O          O       0.17158   0.70654   0.65818  -0.52138
O          O       0.04747   0.69034   0.64326  -0.51235
O          O       0.33289   0.49154   0.04296  -0.52309
O          O       0.45899   0.60039   0.14830  -0.51324
O          O       0.45358   0.80832   0.43855  -0.54774
O          O       0.52633   0.84763   0.37826  -0.55217
O          O       0.05625   0.94205   0.86932  -0.55210
O          O       0.91484   0.88237   0.79152  -0.55053
O          O       0.46715   0.38300   0.09220  -0.49633
O          O       0.33932   0.33579   0.98723  -0.52403
O          O       0.28987   0.89574   0.41308  -0.50925
O          O       0.35331   0.87209   0.51438  -0.54479
O          O       0.02117   0.60791   0.39522  -0.49075
O          O       0.14862   0.63168   0.47862  -0.53984
O          O       0.20904   0.14691   0.18772  -0.45445
O          O       0.13868   0.17655   0.09451  -0.55780
O          O       0.42513   0.92990   0.30110  -0.56157
O          O       0.38112   0.01300   0.35633  -0.45920
O          O       0.86574   0.55687   0.52587  -0.48279
O          O       0.81805   0.44792   0.40319  -0.53746
O          O       0.63873   0.66324   0.19339  -0.48259
O          O       0.68422   0.58991   0.12756  -0.53612
O          O       0.03533   0.83314   0.96504  -0.50907
O          O       0.13969   0.95427   0.07154  -0.52106
O          O       0.00489   0.50320   0.50256  -0.92201
O          O       0.49597   0.49978   0.00027  -0.92111
O          O       0.50686   0.99322   0.48748  -0.96269
O          O       0.98618   0.99065   0.98697  -0.94585

