#======================================================================

# CRYSTAL DATA

#----------------------------------------------------------------------

data_VESTA_phase_1


_chemical_name_common                  'ZIF-3'
_cell_length_a                         18.97010
_cell_length_b                         18.97010
_cell_length_c                         16.74000
_cell_angle_alpha                      90
_cell_angle_beta                       90
_cell_angle_gamma                      90
_space_group_name_H-M_alt              'P 42/m n m'
_space_group_IT_number                 136

loop_
_space_group_symop_operation_xyz
   'x, y, z'
   '-x, -y, -z'
   '-x, -y, z'
   'x, y, -z'
   '-y+1/2, x+1/2, z+1/2'
   'y+1/2, -x+1/2, -z+1/2'
   'y+1/2, -x+1/2, z+1/2'
   '-y+1/2, x+1/2, -z+1/2'
   '-x+1/2, y+1/2, -z+1/2'
   'x+1/2, -y+1/2, z+1/2'
   'x+1/2, -y+1/2, -z+1/2'
   '-x+1/2, y+1/2, z+1/2'
   'y, x, -z'
   '-y, -x, z'
   '-y, -x, -z'
   'y, x, z'

loop_
   _atom_site_label
   _atom_site_occupancy
   _atom_site_fract_x
   _atom_site_fract_y
   _atom_site_fract_z
   _atom_site_adp_type
   _atom_site_B_iso_or_equiv
   _atom_site_type_symbol
   Zn1        1.0     0.105490      0.326640      0.179240     Biso  1.000000 Zn
   C1         1.0     0.210700      0.210700      0.172700     Biso  1.000000 C
   H1         1.0     0.233200      0.233200      0.130500     Biso  1.000000 H
   C2         1.0     0.139800      0.190800      0.265600     Biso  1.000000 C
   H2         1.0     0.102700      0.194200      0.301800     Biso  1.000000 H
   C3         1.0     0.138200      0.467400      0.250500     Biso  1.000000 C
   H3         1.0     0.104700      0.489400      0.218400     Biso  1.000000 H
   C4         1.0     0.199200      0.390700      0.306600     Biso  1.000000 C
   H4         1.0     0.218000      0.347500      0.322100     Biso  1.000000 H
   C5         1.0     0.181200      0.391200      0.042200     Biso  1.000000 C
   H5         1.0     0.212500      0.415500      0.074800     Biso  1.000000 H
   C6         1.0     0.097100      0.328900      0.000000     Biso  1.000000 C
   H6         1.0     0.056700      0.301100      0.000000     Biso  1.000000 H
   C7         1.0     0.217300      0.452700      0.337700     Biso  1.000000 C
   H7         1.0     0.250800      0.460400      0.377300     Biso  1.000000 H
   N1         1.0     0.152200      0.235400      0.204400     Biso  1.000000 N
   N2         1.0     0.149200      0.399400      0.248800     Biso  1.000000 N
   N3         1.0     0.128000      0.350100      0.067100     Biso  1.000000 N
   N4         1.0     0.002100      0.322100      0.199200     Biso  1.000000 N
